<?xml version="1.0" encoding="UTF-8"?>

<!-- generated on mar. 09 avril 2019 13:10:36 CEST by Eclipse SUMO netedit Version 1.1.0
<configuration xmlns:xsi="http://www.w3.org/2001/XMLSchema-instance" xsi:noNamespaceSchemaLocation="http://sumo.dlr.de/xsd/netconvertConfiguration.xsd">

    <output>
        <output-file value="/home/clement/lastnet.net.xml"/>
    </output>

    <processing>
        <offset.disable-normalization value="true"/>
    </processing>

    <junctions>
        <no-turnarounds value="true"/>
    </junctions>

</configuration>
-->

<net version="1.1" junctionCornerDetail="5" limitTurnSpeed="5.50" xmlns:xsi="http://www.w3.org/2001/XMLSchema-instance" xsi:noNamespaceSchemaLocation="http://sumo.dlr.de/xsd/net_file.xsd">

    <location netOffset="0.00,0.00" convBoundary="-200.00,-700.00,600.00,100.10" origBoundary="10000000000.00,10000000000.00,-10000000000.00,-10000000000.00" projParameter="!"/>

    <edge id=":gneJ0_0" function="internal">
        <lane id=":gneJ0_0_0" index="0" speed="4.55" length="3.87" shape="-2.40,104.80 -3.45,104.65 -4.20,104.20 -4.65,103.45 -4.80,102.40"/>
    </edge>
    <edge id=":gneJ0_1" function="internal">
        <lane id=":gneJ0_1_0" index="0" speed="3.13" length="1.29" shape="-2.40,101.60 -2.05,101.65 -1.80,101.80 -1.65,102.05 -1.60,102.40"/>
    </edge>
    <edge id=":gneJ0_2" function="internal">
        <lane id=":gneJ0_2_0" index="0" speed="4.02" length="4.46" shape="-2.40,101.60 1.13,98.87"/>
    </edge>
    <edge id=":gneJ0_3" function="internal">
        <lane id=":gneJ0_3_0" index="0" speed="7.71" length="5.23" shape="1.23,98.97 -2.40,95.20"/>
    </edge>
    <edge id=":gneJ0_4" function="internal">
        <lane id=":gneJ0_4_0" index="0" speed="4.01" length="4.45" shape="1.23,98.97 -1.60,102.40"/>
    </edge>
    <edge id=":gneJ0_5" function="internal">
        <lane id=":gneJ0_5_0" index="0" speed="13.89" length="0.14" shape="1.23,98.97 1.13,98.87"/>
    </edge>
    <edge id=":gneJ0_6" function="internal">
        <lane id=":gneJ0_6_0" index="0" speed="7.61" length="5.09" shape="4.80,102.40 1.13,98.87"/>
    </edge>
    <edge id=":gneJ0_7" function="internal">
        <lane id=":gneJ0_7_0" index="0" speed="5.61" length="6.45" shape="1.60,102.40 1.35,100.65 0.60,99.40 -0.65,98.65 -2.40,98.40"/>
    </edge>
    <edge id=":gneJ1_0" function="internal">
        <lane id=":gneJ1_0_0" index="0" speed="13.89" length="20.80" shape="210.40,104.80 189.60,104.80"/>
        <lane id=":gneJ1_0_1" index="1" speed="13.89" length="20.80" shape="210.40,101.60 189.60,101.60"/>
    </edge>
    <edge id=":gneJ1_2" function="internal">
        <lane id=":gneJ1_2_0" index="0" speed="9.26" length="6.96" shape="210.40,101.60 205.15,100.85 203.73,100.00"/>
    </edge>
    <edge id=":gneJ1_8" function="internal">
        <lane id=":gneJ1_8_0" index="0" speed="9.26" length="12.40" shape="203.73,100.00 201.40,98.60 199.15,94.85 198.40,89.60"/>
    </edge>
    <edge id=":gneJ1_3" function="internal">
        <lane id=":gneJ1_3_0" index="0" speed="6.51" length="9.03" shape="204.80,89.60 205.15,92.05 206.20,93.80 207.95,94.85 210.40,95.20"/>
    </edge>
    <edge id=":gneJ1_4" function="internal">
        <lane id=":gneJ1_4_0" index="0" speed="9.26" length="19.35" shape="201.60,89.60 200.85,94.85 198.60,98.60 194.85,100.85 189.60,101.60"/>
    </edge>
    <edge id=":gneJ1_5" function="internal">
        <lane id=":gneJ1_5_0" index="0" speed="6.51" length="9.03" shape="189.60,95.20 192.05,94.85 193.80,93.80 194.85,92.05 195.20,89.60"/>
    </edge>
    <edge id=":gneJ1_6" function="internal">
        <lane id=":gneJ1_6_0" index="0" speed="13.89" length="20.80" shape="189.60,95.20 210.40,95.20"/>
        <lane id=":gneJ1_6_1" index="1" speed="13.89" length="20.80" shape="189.60,98.40 210.40,98.40"/>
    </edge>
    <edge id=":gneJ10_0" function="internal">
        <lane id=":gneJ10_0_0" index="0" speed="13.89" length="17.60" shape="-204.80,-292.80 -204.80,-310.40"/>
    </edge>
    <edge id=":gneJ10_1" function="internal">
        <lane id=":gneJ10_1_0" index="0" speed="13.89" length="17.98" shape="-201.60,-292.80 -202.10,-298.07 -203.20,-301.60 -204.30,-305.13 -204.80,-310.40"/>
    </edge>
    <edge id=":gneJ10_2" function="internal">
        <lane id=":gneJ10_2_0" index="0" speed="13.89" length="17.60" shape="-201.60,-292.80 -201.60,-310.40"/>
    </edge>
    <edge id=":gneJ10_3" function="internal">
        <lane id=":gneJ10_3_0" index="0" speed="8.67" length="5.26" shape="-201.60,-292.80 -200.85,-296.65 -200.00,-297.69"/>
    </edge>
    <edge id=":gneJ10_13" function="internal">
        <lane id=":gneJ10_13_0" index="0" speed="8.67" length="11.59" shape="-200.00,-297.69 -198.60,-299.40 -194.85,-301.05 -189.60,-301.60"/>
    </edge>
    <edge id=":gneJ10_4" function="internal">
        <lane id=":gneJ10_4_0" index="0" speed="6.51" length="9.03" shape="-189.60,-298.40 -192.05,-298.05 -193.80,-297.00 -194.85,-295.25 -195.20,-292.80"/>
    </edge>
    <edge id=":gneJ10_5" function="internal">
        <lane id=":gneJ10_5_0" index="0" speed="9.26" length="19.35" shape="-189.60,-298.40 -194.85,-299.15 -198.60,-301.40 -200.85,-305.15 -201.60,-310.40"/>
    </edge>
    <edge id=":gneJ10_6" function="internal">
        <lane id=":gneJ10_6_0" index="0" speed="9.26" length="19.35" shape="-189.60,-298.40 -194.85,-299.15 -198.60,-301.40 -200.85,-305.15 -201.60,-310.40"/>
    </edge>
    <edge id=":gneJ10_7" function="internal">
        <lane id=":gneJ10_7_0" index="0" speed="7.33" length="11.73" shape="-198.40,-310.40 -197.85,-307.95 -196.20,-306.20 -193.45,-305.15 -189.60,-304.80"/>
    </edge>
    <edge id=":gneJ10_8" function="internal">
        <lane id=":gneJ10_8_0" index="0" speed="13.89" length="17.60" shape="-198.40,-310.40 -198.40,-292.80"/>
    </edge>
    <edge id=":gneJ10_9" function="internal">
        <lane id=":gneJ10_9_0" index="0" speed="3.24" length="1.60" shape="-198.40,-310.40 -200.00,-310.40"/>
    </edge>
    <edge id=":gneJ10_14" function="internal">
        <lane id=":gneJ10_14_0" index="0" speed="3.24" length="1.60" shape="-200.00,-310.40 -201.60,-310.40"/>
    </edge>
    <edge id=":gneJ10_10" function="internal">
        <lane id=":gneJ10_10_0" index="0" speed="8.00" length="14.19" shape="-198.40,-310.40 -197.85,-306.55 -196.20,-303.80 -193.45,-302.15 -189.60,-301.60"/>
    </edge>
    <edge id=":gneJ10_11" function="internal">
        <lane id=":gneJ10_11_0" index="0" speed="13.89" length="17.60" shape="-198.40,-310.40 -198.40,-292.80"/>
    </edge>
    <edge id=":gneJ10_12" function="internal">
        <lane id=":gneJ10_12_0" index="0" speed="3.24" length="3.20" shape="-198.40,-310.40 -201.60,-310.40"/>
    </edge>
    <edge id=":gneJ12_0" function="internal">
        <lane id=":gneJ12_0_0" index="0" speed="8.55" length="26.18" shape="580.55,-101.60 587.18,-99.66 591.50,-94.88 592.61,-88.76 589.64,-82.85"/>
    </edge>
    <edge id=":gneJ12_1" function="internal">
        <lane id=":gneJ12_1_0" index="0" speed="8.15" length="23.64" shape="580.55,-101.60 586.83,-100.02 590.36,-96.01 590.70,-90.67 587.38,-85.11"/>
    </edge>
    <edge id=":gneJ12_2" function="internal">
        <lane id=":gneJ12_2_0" index="0" speed="5.47" length="9.74" shape="582.85,-89.64 584.79,-92.07 585.06,-93.81 583.64,-94.85 580.55,-95.20"/>
    </edge>
    <edge id=":gneJ12_3" function="internal">
        <lane id=":gneJ12_3_0" index="0" speed="7.42" length="19.31" shape="585.11,-87.38 588.96,-92.20 589.48,-95.64 586.68,-97.71 580.55,-98.40"/>
    </edge>
    <edge id=":gneJ13_0" function="internal">
        <lane id=":gneJ13_0_0" index="0" speed="13.89" length="17.60" shape="395.20,-89.60 395.20,-107.20"/>
        <lane id=":gneJ13_0_1" index="1" speed="13.89" length="17.60" shape="398.40,-89.60 398.40,-107.20"/>
    </edge>
    <edge id=":gneJ13_2" function="internal">
        <lane id=":gneJ13_2_0" index="0" speed="9.26" length="6.96" shape="398.40,-89.60 399.15,-94.85 400.00,-96.27"/>
    </edge>
    <edge id=":gneJ13_3" function="internal">
        <lane id=":gneJ13_3_0" index="0" speed="9.26" length="6.96" shape="398.40,-89.60 399.15,-94.85 400.00,-96.27"/>
    </edge>
    <edge id=":gneJ13_14" function="internal">
        <lane id=":gneJ13_14_0" index="0" speed="9.26" length="12.40" shape="400.00,-96.27 401.40,-98.60 405.15,-100.85 410.40,-101.60"/>
    </edge>
    <edge id=":gneJ13_15" function="internal">
        <lane id=":gneJ13_15_0" index="0" speed="9.26" length="12.40" shape="400.00,-96.27 401.40,-98.60 405.15,-100.85 410.40,-101.60"/>
    </edge>
    <edge id=":gneJ13_4" function="internal">
        <lane id=":gneJ13_4_0" index="0" speed="6.51" length="9.03" shape="410.40,-95.20 407.95,-94.85 406.20,-93.80 405.15,-92.05 404.80,-89.60"/>
    </edge>
    <edge id=":gneJ13_5" function="internal">
        <lane id=":gneJ13_5_0" index="0" speed="8.67" length="16.85" shape="410.40,-98.40 405.15,-98.95 401.40,-100.60 399.15,-103.35 398.40,-107.20"/>
    </edge>
    <edge id=":gneJ13_6" function="internal">
        <lane id=":gneJ13_6_0" index="0" speed="3.24" length="3.20" shape="410.40,-98.40 410.40,-101.60"/>
    </edge>
    <edge id=":gneJ13_7" function="internal">
        <lane id=":gneJ13_7_0" index="0" speed="7.33" length="11.73" shape="410.40,-95.20 406.55,-94.85 403.80,-93.80 402.15,-92.05 401.60,-89.60"/>
    </edge>
    <edge id=":gneJ13_8" function="internal">
        <lane id=":gneJ13_8_0" index="0" speed="8.67" length="16.85" shape="410.40,-98.40 405.15,-98.95 401.40,-100.60 399.15,-103.35 398.40,-107.20"/>
    </edge>
    <edge id=":gneJ13_9" function="internal">
        <lane id=":gneJ13_9_0" index="0" speed="3.24" length="3.20" shape="410.40,-98.40 410.40,-101.60"/>
    </edge>
    <edge id=":gneJ13_10" function="internal">
        <lane id=":gneJ13_10_0" index="0" speed="6.51" length="9.03" shape="404.80,-107.20 405.15,-104.75 406.20,-103.00 407.95,-101.95 410.40,-101.60"/>
    </edge>
    <edge id=":gneJ13_11" function="internal">
        <lane id=":gneJ13_11_0" index="0" speed="5.69" length="6.66" shape="404.80,-107.20 405.15,-106.15 406.20,-105.40 407.95,-104.95 410.40,-104.80"/>
    </edge>
    <edge id=":gneJ13_12" function="internal">
        <lane id=":gneJ13_12_0" index="0" speed="13.89" length="17.60" shape="404.80,-107.20 404.80,-89.60"/>
        <lane id=":gneJ13_12_1" index="1" speed="13.89" length="17.60" shape="401.60,-107.20 401.60,-89.60"/>
    </edge>
    <edge id=":gneJ14_0" function="internal">
        <lane id=":gneJ14_0_0" index="0" speed="8.96" length="18.06" shape="604.80,-106.40 604.10,-101.50 602.00,-98.00 598.50,-95.90 593.60,-95.20"/>
    </edge>
    <edge id=":gneJ14_1" function="internal">
        <lane id=":gneJ14_1_0" index="0" speed="7.66" length="12.90" shape="601.60,-106.40 601.10,-102.90 599.60,-100.40 597.10,-98.90 593.60,-98.40"/>
    </edge>
    <edge id=":gneJ14_2" function="internal">
        <lane id=":gneJ14_2_0" index="0" speed="3.90" length="2.58" shape="593.60,-104.80 594.30,-104.90 594.80,-105.20 595.10,-105.70 595.20,-106.40"/>
    </edge>
    <edge id=":gneJ14_3" function="internal">
        <lane id=":gneJ14_3_0" index="0" speed="6.08" length="7.74" shape="593.60,-101.60 595.70,-101.90 597.20,-102.80 598.10,-104.30 598.40,-106.40"/>
    </edge>
    <edge id=":gneJ15_0" function="internal">
        <lane id=":gneJ15_0_0" index="0" speed="6.51" length="9.03" shape="595.20,-292.80 594.85,-295.25 593.80,-297.00 592.05,-298.05 589.60,-298.40"/>
    </edge>
    <edge id=":gneJ15_1" function="internal">
        <lane id=":gneJ15_1_0" index="0" speed="9.84" length="21.99" shape="589.60,-304.80 596.25,-304.05 601.00,-301.80 603.85,-298.05 604.80,-292.80"/>
    </edge>
    <edge id=":gneJ15_2" function="internal">
        <lane id=":gneJ15_2_0" index="0" speed="8.67" length="16.85" shape="589.60,-301.60 594.85,-301.05 598.60,-299.40 600.85,-296.65 601.60,-292.80"/>
    </edge>
    <edge id=":gneJ16_0" function="internal">
        <lane id=":gneJ16_0_0" index="0" speed="13.89" length="20.80" shape="395.20,-489.60 395.20,-510.40"/>
        <lane id=":gneJ16_0_1" index="1" speed="13.89" length="20.80" shape="398.40,-489.60 398.40,-510.40"/>
    </edge>
    <edge id=":gneJ16_2" function="internal">
        <lane id=":gneJ16_2_0" index="0" speed="9.26" length="6.96" shape="398.40,-489.60 399.15,-494.85 400.00,-496.27"/>
    </edge>
    <edge id=":gneJ16_8" function="internal">
        <lane id=":gneJ16_8_0" index="0" speed="9.26" length="12.40" shape="400.00,-496.27 401.40,-498.60 405.15,-500.85 410.40,-501.60"/>
    </edge>
    <edge id=":gneJ16_3" function="internal">
        <lane id=":gneJ16_3_0" index="0" speed="6.51" length="9.03" shape="410.40,-495.20 407.95,-494.85 406.20,-493.80 405.15,-492.05 404.80,-489.60"/>
    </edge>
    <edge id=":gneJ16_4" function="internal">
        <lane id=":gneJ16_4_0" index="0" speed="9.26" length="19.35" shape="410.40,-498.40 405.15,-499.15 401.40,-501.40 399.15,-505.15 398.40,-510.40"/>
    </edge>
    <edge id=":gneJ16_5" function="internal">
        <lane id=":gneJ16_5_0" index="0" speed="6.51" length="9.03" shape="404.80,-510.40 405.15,-507.95 406.20,-506.20 407.95,-505.15 410.40,-504.80"/>
    </edge>
    <edge id=":gneJ16_6" function="internal">
        <lane id=":gneJ16_6_0" index="0" speed="13.89" length="20.80" shape="404.80,-510.40 404.80,-489.60"/>
        <lane id=":gneJ16_6_1" index="1" speed="13.89" length="20.80" shape="401.60,-510.40 401.60,-489.60"/>
    </edge>
    <edge id=":gneJ17_0" function="internal">
        <lane id=":gneJ17_0_0" index="0" speed="3.90" length="2.58" shape="595.20,-493.60 595.10,-494.30 594.80,-494.80 594.30,-495.10 593.60,-495.20"/>
    </edge>
    <edge id=":gneJ17_1" function="internal">
        <lane id=":gneJ17_1_0" index="0" speed="6.08" length="7.74" shape="598.40,-493.60 598.10,-495.70 597.20,-497.20 595.70,-498.10 593.60,-498.40"/>
    </edge>
    <edge id=":gneJ17_2" function="internal">
        <lane id=":gneJ17_2_0" index="0" speed="8.96" length="18.06" shape="593.60,-504.80 598.50,-504.10 602.00,-502.00 604.10,-498.50 604.80,-493.60"/>
    </edge>
    <edge id=":gneJ17_3" function="internal">
        <lane id=":gneJ17_3_0" index="0" speed="7.66" length="12.90" shape="593.60,-501.60 597.10,-501.10 599.60,-499.60 601.10,-497.10 601.60,-493.60"/>
    </edge>
    <edge id=":gneJ2_0" function="internal">
        <lane id=":gneJ2_0_0" index="0" speed="13.89" length="32.13" shape="417.15,89.64 411.27,94.99 404.47,99.87 397.13,103.43 389.60,104.80"/>
    </edge>
    <edge id=":gneJ2_1" function="internal">
        <lane id=":gneJ2_1_0" index="0" speed="13.89" length="29.74" shape="414.89,87.38 409.36,92.58 403.34,97.14 396.78,100.37 389.60,101.60"/>
    </edge>
    <edge id=":gneJ2_2" function="internal">
        <lane id=":gneJ2_2_0" index="0" speed="8.15" length="6.93" shape="414.89,87.38 409.33,90.70 408.87,90.67"/>
    </edge>
    <edge id=":gneJ2_8" function="internal">
        <lane id=":gneJ2_8_0" index="0" speed="8.15" length="16.71" shape="408.87,90.67 403.99,90.36 399.98,86.83 398.40,80.55"/>
    </edge>
    <edge id=":gneJ2_3" function="internal">
        <lane id=":gneJ2_3_0" index="0" speed="5.47" length="9.74" shape="404.80,80.55 405.15,83.64 406.19,85.06 407.93,84.79 410.36,82.85"/>
    </edge>
    <edge id=":gneJ2_4" function="internal">
        <lane id=":gneJ2_4_0" index="0" speed="10.86" length="27.01" shape="401.60,80.55 401.13,88.06 399.35,94.82 395.69,99.72 389.60,101.60"/>
    </edge>
    <edge id=":gneJ2_5" function="internal">
        <lane id=":gneJ2_5_0" index="0" speed="8.71" length="16.99" shape="389.60,95.20 392.05,94.28 393.80,91.54 394.85,86.96 395.20,80.55"/>
    </edge>
    <edge id=":gneJ2_6" function="internal">
        <lane id=":gneJ2_6_0" index="0" speed="13.89" length="24.66" shape="389.60,95.20 394.05,94.43 399.00,92.11 404.43,88.25 410.36,82.85"/>
    </edge>
    <edge id=":gneJ2_7" function="internal">
        <lane id=":gneJ2_7_0" index="0" speed="13.89" length="27.16" shape="389.60,98.40 394.69,97.57 400.22,95.08 406.20,90.93 412.62,85.11"/>
    </edge>
    <edge id=":gneJ20_0" function="internal">
        <lane id=":gneJ20_0_0" index="0" speed="3.90" length="2.58" shape="395.20,-693.60 395.10,-694.30 394.80,-694.80 394.30,-695.10 393.60,-695.20"/>
    </edge>
    <edge id=":gneJ20_1" function="internal">
        <lane id=":gneJ20_1_0" index="0" speed="6.08" length="7.74" shape="398.40,-693.60 398.10,-695.70 397.20,-697.20 395.70,-698.10 393.60,-698.40"/>
    </edge>
    <edge id=":gneJ20_2" function="internal">
        <lane id=":gneJ20_2_0" index="0" speed="8.96" length="18.06" shape="393.60,-704.80 398.50,-704.10 402.00,-702.00 404.10,-698.50 404.80,-693.60"/>
    </edge>
    <edge id=":gneJ20_3" function="internal">
        <lane id=":gneJ20_3_0" index="0" speed="7.66" length="12.90" shape="393.60,-701.60 397.10,-701.10 399.60,-699.60 401.10,-697.10 401.60,-693.60"/>
    </edge>
    <edge id=":gneJ21_0" function="internal">
        <lane id=":gneJ21_0_0" index="0" speed="7.33" length="11.73" shape="195.20,-689.60 194.85,-693.45 193.80,-696.20 192.05,-697.85 189.60,-698.40"/>
    </edge>
    <edge id=":gneJ21_1" function="internal">
        <lane id=":gneJ21_1_0" index="0" speed="9.26" length="19.35" shape="198.40,-689.60 199.15,-694.85 201.40,-698.60 205.15,-700.85 210.40,-701.60"/>
    </edge>
    <edge id=":gneJ21_2" function="internal">
        <lane id=":gneJ21_2_0" index="0" speed="6.51" length="9.03" shape="210.40,-695.20 207.95,-694.85 206.20,-693.80 205.15,-692.05 204.80,-689.60"/>
    </edge>
    <edge id=":gneJ21_3" function="internal">
        <lane id=":gneJ21_3_0" index="0" speed="8.00" length="14.19" shape="210.40,-698.40 206.55,-697.85 203.80,-696.20 202.15,-693.45 201.60,-689.60"/>
    </edge>
    <edge id=":gneJ21_4" function="internal">
        <lane id=":gneJ21_4_0" index="0" speed="13.89" length="20.80" shape="210.40,-698.40 189.60,-698.40"/>
    </edge>
    <edge id=":gneJ21_5" function="internal">
        <lane id=":gneJ21_5_0" index="0" speed="13.89" length="20.80" shape="189.60,-704.80 210.40,-704.80"/>
        <lane id=":gneJ21_5_1" index="1" speed="13.89" length="20.80" shape="189.60,-701.60 210.40,-701.60"/>
    </edge>
    <edge id=":gneJ21_7" function="internal">
        <lane id=":gneJ21_7_0" index="0" speed="9.26" length="6.96" shape="189.60,-701.60 194.85,-700.85 196.27,-700.00"/>
    </edge>
    <edge id=":gneJ21_8" function="internal">
        <lane id=":gneJ21_8_0" index="0" speed="9.26" length="12.40" shape="196.27,-700.00 198.60,-698.60 200.85,-694.85 201.60,-689.60"/>
    </edge>
    <edge id=":gneJ22_0" function="internal">
        <lane id=":gneJ22_0_0" index="0" speed="9.26" length="19.35" shape="10.40,-298.40 5.15,-299.15 1.40,-301.40 -0.85,-305.15 -1.60,-310.40"/>
    </edge>
    <edge id=":gneJ22_1" function="internal">
        <lane id=":gneJ22_1_0" index="0" speed="6.51" length="9.03" shape="4.80,-310.40 5.15,-307.95 6.20,-306.20 7.95,-305.15 10.40,-304.80"/>
    </edge>
    <edge id=":gneJ22_2" function="internal">
        <lane id=":gneJ22_2_0" index="0" speed="8.00" length="14.19" shape="1.60,-310.40 2.15,-306.55 3.80,-303.80 6.55,-302.15 10.40,-301.60"/>
    </edge>
    <edge id=":gneJ22_3" function="internal">
        <lane id=":gneJ22_3_0" index="0" speed="6.51" length="9.03" shape="-10.40,-304.80 -7.95,-305.15 -6.20,-306.20 -5.15,-307.95 -4.80,-310.40"/>
    </edge>
    <edge id=":gneJ22_4" function="internal">
        <lane id=":gneJ22_4_0" index="0" speed="13.89" length="20.80" shape="-10.40,-304.80 10.40,-304.80"/>
        <lane id=":gneJ22_4_1" index="1" speed="13.89" length="20.80" shape="-10.40,-301.60 10.40,-301.60"/>
    </edge>
    <edge id=":gneJ23_0" function="internal">
        <lane id=":gneJ23_0_0" index="0" speed="5.47" length="9.74" shape="-4.80,-680.55 -5.15,-683.64 -6.19,-685.06 -7.93,-684.79 -10.36,-682.85"/>
    </edge>
    <edge id=":gneJ23_1" function="internal">
        <lane id=":gneJ23_1_0" index="0" speed="11.62" length="7.64" shape="-4.80,-680.55 -3.88,-688.14"/>
    </edge>
    <edge id=":gneJ23_2" function="internal">
        <lane id=":gneJ23_2_0" index="0" speed="10.86" length="4.94" shape="-1.60,-680.55 -1.29,-685.48"/>
    </edge>
    <edge id=":gneJ23_7" function="internal">
        <lane id=":gneJ23_7_0" index="0" speed="11.62" length="23.46" shape="-3.88,-688.14 -3.83,-688.56 -0.95,-696.42 3.81,-702.42 10.40,-704.80"/>
    </edge>
    <edge id=":gneJ23_8" function="internal">
        <lane id=":gneJ23_8_0" index="0" speed="10.86" length="22.06" shape="-1.29,-685.48 -1.13,-688.06 0.65,-694.82 4.31,-699.72 10.40,-701.60"/>
    </edge>
    <edge id=":gneJ23_3" function="internal">
        <lane id=":gneJ23_3_0" index="0" speed="9.40" length="19.96" shape="10.40,-698.40 7.95,-697.28 6.20,-693.94 5.15,-688.36 4.80,-680.55"/>
    </edge>
    <edge id=":gneJ23_4" function="internal">
        <lane id=":gneJ23_4_0" index="0" speed="13.89" length="27.16" shape="10.40,-698.40 5.31,-697.57 -0.22,-695.08 -6.20,-690.93 -12.62,-685.11"/>
    </edge>
    <edge id=":gneJ23_5" function="internal">
        <lane id=":gneJ23_5_0" index="0" speed="13.89" length="32.17" shape="-17.15,-689.64 -9.74,-696.27 -2.68,-701.01 4.03,-703.85 10.40,-704.80"/>
    </edge>
    <edge id=":gneJ23_6" function="internal">
        <lane id=":gneJ23_6_0" index="0" speed="8.15" length="23.64" shape="-14.89,-687.38 -9.33,-690.70 -3.99,-690.36 0.02,-686.83 1.60,-680.55"/>
    </edge>
    <edge id=":gneJ25_0" function="internal">
        <lane id=":gneJ25_0_0" index="0" speed="9.84" length="21.99" shape="-204.80,-489.60 -204.05,-496.25 -201.80,-501.00 -198.05,-503.85 -192.80,-504.80"/>
    </edge>
    <edge id=":gneJ25_1" function="internal">
        <lane id=":gneJ25_1_0" index="0" speed="8.67" length="16.85" shape="-201.60,-489.60 -201.05,-494.85 -199.40,-498.60 -196.65,-500.85 -192.80,-501.60"/>
    </edge>
    <edge id=":gneJ25_2" function="internal">
        <lane id=":gneJ25_2_0" index="0" speed="6.51" length="9.03" shape="-192.80,-495.20 -195.25,-494.85 -197.00,-493.80 -198.05,-492.05 -198.40,-489.60"/>
    </edge>
    <edge id=":gneJ26_0" function="internal">
        <lane id=":gneJ26_0_0" index="0" speed="11.14" length="11.40" shape="-204.80,-492.49 -205.14,-495.92 -205.61,-498.46 -205.36,-500.71 -203.55,-503.24"/>
    </edge>
    <edge id=":gneJ26_1" function="internal">
        <lane id=":gneJ26_1_0" index="0" speed="9.94" length="8.99" shape="-201.60,-492.49 -201.97,-495.19 -202.57,-497.20 -202.60,-498.98 -201.29,-500.98"/>
    </edge>
    <edge id=":gneJ26_2" function="internal">
        <lane id=":gneJ26_2_0" index="0" speed="7.11" length="4.40" shape="-196.76,-496.45 -197.48,-495.59 -197.99,-494.64 -198.30,-493.61 -198.40,-492.49"/>
    </edge>
    <edge id=":gneJ27_0" function="internal">
        <lane id=":gneJ27_0_0" index="0" speed="13.89" length="0.14" shape="1.23,98.97 1.13,98.87"/>
    </edge>
    <edge id=":gneJ3_0" function="internal">
        <lane id=":gneJ3_0_0" index="0" speed="6.51" length="9.03" shape="395.20,-289.60 394.85,-292.05 393.80,-293.80 392.05,-294.85 389.60,-295.20"/>
    </edge>
    <edge id=":gneJ3_1" function="internal">
        <lane id=":gneJ3_1_0" index="0" speed="13.89" length="20.80" shape="395.20,-289.60 395.20,-310.40"/>
        <lane id=":gneJ3_1_1" index="1" speed="13.89" length="20.80" shape="398.40,-289.60 398.40,-310.40"/>
    </edge>
    <edge id=":gneJ3_3" function="internal">
        <lane id=":gneJ3_3_0" index="0" speed="9.26" length="6.96" shape="398.40,-289.60 399.15,-294.85 400.00,-296.27"/>
    </edge>
    <edge id=":gneJ3_15" function="internal">
        <lane id=":gneJ3_15_0" index="0" speed="9.26" length="12.40" shape="400.00,-296.27 401.40,-298.60 405.15,-300.85 410.40,-301.60"/>
    </edge>
    <edge id=":gneJ3_4" function="internal">
        <lane id=":gneJ3_4_0" index="0" speed="7.33" length="11.73" shape="410.40,-298.40 407.95,-297.85 406.20,-296.20 405.15,-293.45 404.80,-289.60"/>
    </edge>
    <edge id=":gneJ3_5" function="internal">
        <lane id=":gneJ3_5_0" index="0" speed="13.89" length="20.80" shape="410.40,-298.40 389.60,-298.40"/>
    </edge>
    <edge id=":gneJ3_6" function="internal">
        <lane id=":gneJ3_6_0" index="0" speed="9.26" length="19.35" shape="410.40,-298.40 405.15,-299.15 401.40,-301.40 399.15,-305.15 398.40,-310.40"/>
    </edge>
    <edge id=":gneJ3_7" function="internal">
        <lane id=":gneJ3_7_0" index="0" speed="6.51" length="9.03" shape="404.80,-310.40 405.15,-307.95 406.20,-306.20 407.95,-305.15 410.40,-304.80"/>
    </edge>
    <edge id=":gneJ3_8" function="internal">
        <lane id=":gneJ3_8_0" index="0" speed="13.89" length="20.80" shape="404.80,-310.40 404.80,-289.60"/>
        <lane id=":gneJ3_8_1" index="1" speed="13.89" length="20.80" shape="401.60,-310.40 401.60,-289.60"/>
    </edge>
    <edge id=":gneJ3_10" function="internal">
        <lane id=":gneJ3_10_0" index="0" speed="9.26" length="6.96" shape="401.60,-310.40 400.85,-305.15 400.00,-303.73"/>
    </edge>
    <edge id=":gneJ3_16" function="internal">
        <lane id=":gneJ3_16_0" index="0" speed="9.26" length="12.40" shape="400.00,-303.73 398.60,-301.40 394.85,-299.15 389.60,-298.40"/>
    </edge>
    <edge id=":gneJ3_11" function="internal">
        <lane id=":gneJ3_11_0" index="0" speed="6.51" length="9.03" shape="389.60,-304.80 392.05,-305.15 393.80,-306.20 394.85,-307.95 395.20,-310.40"/>
    </edge>
    <edge id=":gneJ3_12" function="internal">
        <lane id=":gneJ3_12_0" index="0" speed="13.89" length="20.80" shape="389.60,-304.80 410.40,-304.80"/>
        <lane id=":gneJ3_12_1" index="1" speed="13.89" length="20.80" shape="389.60,-301.60 410.40,-301.60"/>
    </edge>
    <edge id=":gneJ3_14" function="internal">
        <lane id=":gneJ3_14_0" index="0" speed="9.26" length="19.35" shape="389.60,-301.60 394.85,-300.85 398.60,-298.60 400.85,-294.85 401.60,-289.60"/>
    </edge>
    <edge id=":gneJ30_0" function="internal">
        <lane id=":gneJ30_0_0" index="0" speed="13.89" length="0.10" shape="-2.53,-298.40 -2.53,-298.40"/>
    </edge>
    <edge id=":gneJ4_0" function="internal">
        <lane id=":gneJ4_0_0" index="0" speed="7.33" length="11.73" shape="195.20,-289.60 194.85,-293.45 193.80,-296.20 192.05,-297.85 189.60,-298.40"/>
    </edge>
    <edge id=":gneJ4_1" function="internal">
        <lane id=":gneJ4_1_0" index="0" speed="7.33" length="11.73" shape="195.20,-289.60 194.85,-293.45 193.80,-296.20 192.05,-297.85 189.60,-298.40"/>
    </edge>
    <edge id=":gneJ4_2" function="internal">
        <lane id=":gneJ4_2_0" index="0" speed="13.89" length="20.80" shape="195.20,-289.60 195.20,-310.40"/>
        <lane id=":gneJ4_2_1" index="1" speed="13.89" length="20.80" shape="198.40,-289.60 198.40,-310.40"/>
    </edge>
    <edge id=":gneJ4_4" function="internal">
        <lane id=":gneJ4_4_0" index="0" speed="9.26" length="6.96" shape="198.40,-289.60 199.15,-294.85 200.00,-296.27"/>
    </edge>
    <edge id=":gneJ4_19" function="internal">
        <lane id=":gneJ4_19_0" index="0" speed="9.26" length="12.40" shape="200.00,-296.27 201.40,-298.60 205.15,-300.85 210.40,-301.60"/>
    </edge>
    <edge id=":gneJ4_5" function="internal">
        <lane id=":gneJ4_5_0" index="0" speed="6.51" length="9.03" shape="210.40,-295.20 207.95,-294.85 206.20,-293.80 205.15,-292.05 204.80,-289.60"/>
    </edge>
    <edge id=":gneJ4_6" function="internal">
        <lane id=":gneJ4_6_0" index="0" speed="13.89" length="21.09" shape="210.40,-295.20 203.63,-295.70 198.12,-296.80 193.55,-297.90 189.60,-298.40"/>
    </edge>
    <edge id=":gneJ4_7" function="internal">
        <lane id=":gneJ4_7_0" index="0" speed="13.89" length="20.80" shape="210.40,-298.40 189.60,-298.40"/>
    </edge>
    <edge id=":gneJ4_8" function="internal">
        <lane id=":gneJ4_8_0" index="0" speed="9.26" length="19.35" shape="210.40,-298.40 205.15,-299.15 201.40,-301.40 199.15,-305.15 198.40,-310.40"/>
    </edge>
    <edge id=":gneJ4_9" function="internal">
        <lane id=":gneJ4_9_0" index="0" speed="6.51" length="9.03" shape="204.80,-310.40 205.15,-307.95 206.20,-306.20 207.95,-305.15 210.40,-304.80"/>
    </edge>
    <edge id=":gneJ4_10" function="internal">
        <lane id=":gneJ4_10_0" index="0" speed="13.89" length="20.80" shape="204.80,-310.40 204.80,-289.60"/>
        <lane id=":gneJ4_10_1" index="1" speed="13.89" length="20.80" shape="201.60,-310.40 201.60,-289.60"/>
    </edge>
    <edge id=":gneJ4_12" function="internal">
        <lane id=":gneJ4_12_0" index="0" speed="9.26" length="6.96" shape="201.60,-310.40 200.85,-305.15 200.00,-303.73"/>
    </edge>
    <edge id=":gneJ4_13" function="internal">
        <lane id=":gneJ4_13_0" index="0" speed="9.26" length="6.96" shape="201.60,-310.40 200.85,-305.15 200.00,-303.73"/>
    </edge>
    <edge id=":gneJ4_20" function="internal">
        <lane id=":gneJ4_20_0" index="0" speed="9.26" length="12.40" shape="200.00,-303.73 198.60,-301.40 194.85,-299.15 189.60,-298.40"/>
    </edge>
    <edge id=":gneJ4_21" function="internal">
        <lane id=":gneJ4_21_0" index="0" speed="9.26" length="12.40" shape="200.00,-303.73 198.60,-301.40 194.85,-299.15 189.60,-298.40"/>
    </edge>
    <edge id=":gneJ4_14" function="internal">
        <lane id=":gneJ4_14_0" index="0" speed="6.51" length="9.03" shape="189.60,-304.80 192.05,-305.15 193.80,-306.20 194.85,-307.95 195.20,-310.40"/>
    </edge>
    <edge id=":gneJ4_15" function="internal">
        <lane id=":gneJ4_15_0" index="0" speed="13.89" length="20.80" shape="189.60,-304.80 210.40,-304.80"/>
        <lane id=":gneJ4_15_1" index="1" speed="13.89" length="20.80" shape="189.60,-301.60 210.40,-301.60"/>
    </edge>
    <edge id=":gneJ4_17" function="internal">
        <lane id=":gneJ4_17_0" index="0" speed="9.26" length="19.35" shape="189.60,-301.60 194.85,-300.85 198.60,-298.60 200.85,-294.85 201.60,-289.60"/>
    </edge>
    <edge id=":gneJ4_18" function="internal">