<?xml version="1.0" encoding="UTF-8"?>

<!-- generated on 04/11/19 00:37:49 by Eclipse SUMO netedit Version 1.1.0
<configuration xmlns:xsi="http://www.w3.org/2001/XMLSchema-instance" xsi:noNamespaceSchemaLocation="http://sumo.dlr.de/xsd/netconvertConfiguration.xsd">

    <input>
        <sumo-net-file value="C:\Users\maxim\Desktop\PPE\PPE_repo\Final3\lastnet.net.xml"/>
    </input>

    <output>
        <output-file value="C:\Users\maxim\Desktop\PPE\PPE_repo\Final3\lastnet.net.xml"/>
    </output>

    <processing>
        <geometry.max-grade.fix value="false"/>
        <offset.disable-normalization value="true"/>
        <lefthand value="false"/>
    </processing>

    <junctions>
        <no-turnarounds value="true"/>
        <junctions.corner-detail value="5"/>
        <junctions.limit-turn-speed value="5.5"/>
        <rectangular-lane-cut value="false"/>
    </junctions>

    <pedestrian>
        <walkingareas value="false"/>
    </pedestrian>

</configuration>
-->

<net version="1.1" junctionCornerDetail="5" limitTurnSpeed="5.50" xmlns:xsi="http://www.w3.org/2001/XMLSchema-instance" xsi:noNamespaceSchemaLocation="http://sumo.dlr.de/xsd/net_file.xsd">

    <location netOffset="0.00,0.00" convBoundary="-200.10,-700.00,600.00,100.00" origBoundary="-10000000000.00,-10000000000.00,10000000000.00,10000000000.00" projParameter="!"/>

    <edge id=":cluster_gneJ0_gneJ27_0" function="internal">
        <lane id=":cluster_gneJ0_gneJ27_0_0" index="0" speed="8.96" length="18.06" shape="6.30,104.70 1.40,104.00 -2.10,101.90 -4.20,98.40 -4.90,93.50"/>
    </edge>
    <edge id=":cluster_gneJ0_gneJ27_1" function="internal">
        <lane id=":cluster_gneJ0_gneJ27_1_0" index="0" speed="7.66" length="12.90" shape="6.30,101.50 2.80,101.00 0.30,99.50 -1.20,97.00 -1.70,93.50"/>
    </edge>
    <edge id=":cluster_gneJ0_gneJ27_2" function="internal">
        <lane id=":cluster_gneJ0_gneJ27_2_0" index="0" speed="3.90" length="2.58" shape="4.70,93.50 4.80,94.20 5.10,94.70 5.60,95.00 6.30,95.10"/>
    </edge>
    <edge id=":cluster_gneJ0_gneJ27_3" function="internal">
        <lane id=":cluster_gneJ0_gneJ27_3_0" index="0" speed="6.08" length="7.74" shape="1.50,93.50 1.80,95.60 2.70,97.10 4.20,98.00 6.30,98.30"/>
    </edge>
    <edge id=":cluster_gneJ12_gneJ14_0" function="internal">
        <lane id=":cluster_gneJ12_gneJ14_0_0" index="0" speed="13.89" length="32.13" shape="604.70,-110.50 603.33,-102.97 599.77,-95.62 594.90,-88.83 589.55,-82.95"/>
    </edge>
    <edge id=":cluster_gneJ12_gneJ14_1" function="internal">
        <lane id=":cluster_gneJ12_gneJ14_1_0" index="0" speed="10.86" length="7.32" shape="601.50,-110.50 599.62,-104.40 598.87,-103.84"/>
    </edge>
    <edge id=":cluster_gneJ12_gneJ14_7" function="internal">
        <lane id=":cluster_gneJ12_gneJ14_7_0" index="0" speed="10.86" length="19.69" shape="598.87,-103.84 594.72,-100.75 587.96,-98.96 580.45,-98.49"/>
    </edge>
    <edge id=":cluster_gneJ12_gneJ14_2" function="internal">
        <lane id=":cluster_gneJ12_gneJ14_2_0" index="0" speed="8.71" length="16.99" shape="580.45,-104.89 586.86,-105.24 591.44,-106.30 594.18,-108.05 595.10,-110.50"/>
    </edge>
    <edge id=":cluster_gneJ12_gneJ14_3" function="internal">
        <lane id=":cluster_gneJ12_gneJ14_3_0" index="0" speed="8.15" length="23.64" shape="580.45,-101.69 586.73,-100.11 590.27,-96.10 590.60,-90.77 587.28,-85.21"/>
    </edge>
    <edge id=":cluster_gneJ12_gneJ14_4" function="internal">
        <lane id=":cluster_gneJ12_gneJ14_4_0" index="0" speed="6.53" length="14.55" shape="582.76,-89.73 585.90,-93.57 586.56,-96.30 584.74,-97.94 580.45,-98.49"/>
    </edge>
    <edge id=":cluster_gneJ12_gneJ14_5" function="internal">
        <lane id=":cluster_gneJ12_gneJ14_5_0" index="0" speed="13.89" length="24.99" shape="582.76,-89.73 587.67,-94.55 591.58,-99.02 594.17,-104.03 595.10,-110.50"/>
    </edge>
    <edge id=":cluster_gneJ12_gneJ14_6" function="internal">
        <lane id=":cluster_gneJ12_gneJ14_6_0" index="0" speed="13.89" length="27.36" shape="585.02,-87.47 590.08,-92.65 594.31,-97.89 597.22,-103.67 598.30,-110.50"/>
    </edge>
    <edge id=":cluster_gneJ15_gneJ18_0" function="internal">
        <lane id=":cluster_gneJ15_gneJ18_0_0" index="0" speed="6.51" length="9.03" shape="595.10,-292.90 594.75,-295.35 593.70,-297.10 591.95,-298.15 589.50,-298.49"/>
    </edge>
    <edge id=":cluster_gneJ15_gneJ18_1" function="internal">
        <lane id=":cluster_gneJ15_gneJ18_1_0" index="0" speed="13.89" length="17.60" shape="595.10,-292.90 595.11,-310.50"/>
        <lane id=":cluster_gneJ15_gneJ18_1_1" index="1" speed="13.89" length="17.60" shape="598.30,-292.90 598.31,-310.49"/>
    </edge>
    <edge id=":cluster_gneJ15_gneJ18_3" function="internal">
        <lane id=":cluster_gneJ15_gneJ18_3_0" index="0" speed="13.89" length="17.60" shape="604.71,-310.49 604.70,-292.90"/>
        <lane id=":cluster_gneJ15_gneJ18_3_1" index="1" speed="13.89" length="17.60" shape="601.51,-310.49 601.50,-292.90"/>
    </edge>
    <edge id=":cluster_gneJ15_gneJ18_5" function="internal">
        <lane id=":cluster_gneJ15_gneJ18_5_0" index="0" speed="9.26" length="6.95" shape="601.51,-310.49 600.75,-305.25 599.90,-303.83"/>
    </edge>
    <edge id=":cluster_gneJ15_gneJ18_8" function="internal">
        <lane id=":cluster_gneJ15_gneJ18_8_0" index="0" speed="9.26" length="12.40" shape="599.90,-303.83 598.50,-301.50 594.75,-299.25 589.50,-298.49"/>
    </edge>
    <edge id=":cluster_gneJ15_gneJ18_6" function="internal">
        <lane id=":cluster_gneJ15_gneJ18_6_0" index="0" speed="6.51" length="9.04" shape="589.50,-304.89 591.95,-305.25 593.70,-306.30 594.75,-308.05 595.11,-310.50"/>
    </edge>
    <edge id=":cluster_gneJ15_gneJ18_7" function="internal">
        <lane id=":cluster_gneJ15_gneJ18_7_0" index="0" speed="8.67" length="16.85" shape="589.50,-301.69 594.75,-301.15 598.50,-299.50 600.75,-296.75 601.50,-292.90"/>
    </edge>
    <edge id=":cluster_gneJ22_gneJ30_0" function="internal">
        <lane id=":cluster_gneJ22_gneJ30_0_0" index="0" speed="13.89" length="20.80" shape="10.40,-298.40 -10.40,-298.40"/>
    </edge>
    <edge id=":cluster_gneJ22_gneJ30_1" function="internal">
        <lane id=":cluster_gneJ22_gneJ30_1_0" index="0" speed="9.26" length="19.35" shape="10.40,-298.40 5.15,-299.15 1.40,-301.40 -0.85,-305.15 -1.60,-310.40"/>
    </edge>
    <edge id=":cluster_gneJ22_gneJ30_2" function="internal">
        <lane id=":cluster_gneJ22_gneJ30_2_0" index="0" speed="6.51" length="9.03" shape="4.80,-310.40 5.15,-307.95 6.20,-306.20 7.95,-305.15 10.40,-304.80"/>
    </edge>
    <edge id=":cluster_gneJ22_gneJ30_3" function="internal">
        <lane id=":cluster_gneJ22_gneJ30_3_0" index="0" speed="8.00" length="14.19" shape="1.60,-310.40 2.15,-306.55 3.80,-303.80 6.55,-302.15 10.40,-301.60"/>
    </edge>
    <edge id=":cluster_gneJ22_gneJ30_4" function="internal">
        <lane id=":cluster_gneJ22_gneJ30_4_0" index="0" speed="9.26" length="19.35" shape="1.60,-310.40 0.85,-305.15 -1.40,-301.40 -5.15,-299.15 -10.40,-298.40"/>
    </edge>
    <edge id=":cluster_gneJ22_gneJ30_5" function="internal">
        <lane id=":cluster_gneJ22_gneJ30_5_0" index="0" speed="6.51" length="9.03" shape="-10.40,-304.80 -7.95,-305.15 -6.20,-306.20 -5.15,-307.95 -4.80,-310.40"/>
    </edge>
    <edge id=":cluster_gneJ22_gneJ30_6" function="internal">
        <lane id=":cluster_gneJ22_gneJ30_6_0" index="0" speed="13.89" length="20.80" shape="-10.40,-304.80 10.40,-304.80"/>
        <lane id=":cluster_gneJ22_gneJ30_6_1" index="1" speed="13.89" length="20.80" shape="-10.40,-301.60 10.40,-301.60"/>
    </edge>
    <edge id=":cluster_gneJ24_gneJ31_gneJ32_gneJ33_0" function="internal">
        <lane id=":cluster_gneJ24_gneJ31_gneJ32_gneJ33_0_0" index="0" speed="6.51" length="9.04" shape="-4.80,-489.60 -5.15,-492.05 -6.20,-493.80 -7.95,-494.85 -10.41,-495.21"/>
    </edge>
    <edge id=":cluster_gneJ24_gneJ31_gneJ32_gneJ33_1" function="internal">
        <lane id=":cluster_gneJ24_gneJ31_gneJ32_gneJ33_1_0" index="0" speed="13.89" length="20.80" shape="-4.80,-489.60 -4.80,-510.40"/>
        <lane id=":cluster_gneJ24_gneJ31_gneJ32_gneJ33_1_1" index="1" speed="13.89" length="20.80" shape="-1.60,-489.60 -1.60,-510.40"/>
    </edge>
    <edge id=":cluster_gneJ24_gneJ31_gneJ32_gneJ33_3" function="internal">
        <lane id=":cluster_gneJ24_gneJ31_gneJ32_gneJ33_3_0" index="0" speed="13.89" length="20.80" shape="4.80,-510.40 4.80,-489.60"/>
        <lane id=":cluster_gneJ24_gneJ31_gneJ32_gneJ33_3_1" index="1" speed="13.89" length="20.80" shape="1.60,-510.40 1.60,-489.60"/>
    </edge>
    <edge id=":cluster_gneJ24_gneJ31_gneJ32_gneJ33_5" function="internal">
        <lane id=":cluster_gneJ24_gneJ31_gneJ32_gneJ33_5_0" index="0" speed="9.26" length="6.95" shape="1.60,-510.40 0.85,-505.15 0.00,-503.73"/>
    </edge>
    <edge id=":cluster_gneJ24_gneJ31_gneJ32_gneJ33_8" function="internal">
        <lane id=":cluster_gneJ24_gneJ31_gneJ32_gneJ33_8_0" index="0" speed="9.26" length="12.40" shape="0.00,-503.73 -1.40,-501.40 -5.15,-499.15 -10.40,-498.41"/>
    </edge>
    <edge id=":cluster_gneJ24_gneJ31_gneJ32_gneJ33_6" function="internal">
        <lane id=":cluster_gneJ24_gneJ31_gneJ32_gneJ33_6_0" index="0" speed="6.51" length="9.03" shape="-10.40,-504.80 -7.95,-505.15 -6.20,-506.20 -5.15,-507.95 -4.80,-510.40"/>
    </edge>
    <edge id=":cluster_gneJ24_gneJ31_gneJ32_gneJ33_7" function="internal">
        <lane id=":cluster_gneJ24_gneJ31_gneJ32_gneJ33_7_0" index="0" speed="9.26" length="19.35" shape="-10.40,-501.60 -5.15,-500.85 -1.40,-498.60 0.85,-494.85 1.60,-489.60"/>
    </edge>
    <edge id=":cluster_gneJ25_gneJ26_0" function="internal">
        <lane id=":cluster_gneJ25_gneJ26_0_0" index="0" speed="13.89" length="31.19" shape="-204.89,-489.69 -203.81,-494.23 -200.54,-499.95 -195.09,-506.87 -187.47,-514.98"/>
    </edge>
    <edge id=":cluster_gneJ25_gneJ26_1" function="internal">
        <lane id=":cluster_gneJ25_gneJ26_1_0" index="0" speed="10.85" length="7.97" shape="-201.69,-489.70 -199.81,-495.79 -198.54,-496.74"/>
    </edge>
    <edge id=":cluster_gneJ25_gneJ26_2" function="internal">
        <lane id=":cluster_gneJ25_gneJ26_2_0" index="0" speed="3.65" length="2.58" shape="-201.69,-489.70 -200.90,-490.90 -200.10,-491.30 -199.87,-491.19"/>
    </edge>
    <edge id=":cluster_gneJ25_gneJ26_7" function="internal">
        <lane id=":cluster_gneJ25_gneJ26_7_0" index="0" speed="10.85" length="19.04" shape="-198.54,-496.74 -194.92,-499.44 -188.16,-501.22 -180.65,-501.69"/>
    </edge>
    <edge id=":cluster_gneJ25_gneJ26_8" function="internal">
        <lane id=":cluster_gneJ25_gneJ26_8_0" index="0" speed="3.65" length="2.09" shape="-199.87,-491.19 -199.30,-490.90 -198.49,-489.70"/>
    </edge>
    <edge id=":cluster_gneJ25_gneJ26_3" function="internal">
        <lane id=":cluster_gneJ25_gneJ26_3_0" index="0" speed="9.39" length="19.96" shape="-180.65,-495.29 -188.46,-494.94 -194.04,-493.90 -197.38,-492.15 -198.49,-489.70"/>
    </edge>
    <edge id=":cluster_gneJ25_gneJ26_4" function="internal">
        <lane id=":cluster_gneJ25_gneJ26_4_0" index="0" speed="8.15" length="23.64" shape="-180.65,-498.49 -186.93,-500.07 -190.46,-504.09 -190.80,-509.42 -187.47,-514.98"/>
    </edge>
    <edge id=":cluster_gneJ25_gneJ26_5" function="internal">
        <lane id=":cluster_gneJ25_gneJ26_5_0" index="0" speed="5.47" length="9.74" shape="-182.95,-510.45 -184.89,-508.02 -185.15,-506.28 -183.74,-505.24 -180.65,-504.89"/>
    </edge>
    <edge id=":cluster_gneJ25_gneJ26_6" function="internal">
        <lane id=":cluster_gneJ25_gneJ26_6_0" index="0" speed="13.89" length="27.16" shape="-185.21,-512.71 -191.02,-506.30 -195.18,-500.32 -197.67,-494.79 -198.49,-489.70"/>
    </edge>
    <edge id=":gneJ1_0" function="internal">
        <lane id=":gneJ1_0_0" index="0" speed="13.89" length="20.80" shape="210.40,104.80 189.59,104.79"/>
        <lane id=":gneJ1_0_1" index="1" speed="13.89" length="20.80" shape="210.40,101.60 189.60,101.59"/>
    </edge>
    <edge id=":gneJ1_2" function="internal">
        <lane id=":gneJ1_2_0" index="0" speed="9.26" length="6.96" shape="210.40,101.60 205.15,100.85 203.73,100.00"/>
    </edge>
    <edge id=":gneJ1_8" function="internal">
        <lane id=":gneJ1_8_0" index="0" speed="9.26" length="12.40" shape="203.73,100.00 201.40,98.60 199.15,94.85 198.40,89.60"/>
    </edge>
    <edge id=":gneJ1_3" function="internal">
        <lane id=":gneJ1_3_0" index="0" speed="6.51" length="9.03" shape="204.80,89.60 205.15,92.05 206.20,93.80 207.95,94.85 210.40,95.20"/>
    </edge>
    <edge id=":gneJ1_4" function="internal">
        <lane id=":gneJ1_4_0" index="0" speed="9.26" length="19.36" shape="201.60,89.60 200.85,94.85 198.60,98.60 194.85,100.85 189.60,101.59"/>
    </edge>
    <edge id=":gneJ1_5" function="internal">
        <lane id=":gneJ1_5_0" index="0" speed="6.51" length="9.03" shape="189.60,95.19 192.05,94.85 193.80,93.80 194.85,92.05 195.20,89.60"/>
    </edge>
    <edge id=":gneJ1_6" function="internal">
        <lane id=":gneJ1_6_0" index="0" speed="13.89" length="20.80" shape="189.60,95.19 210.40,95.20"/>
        <lane id=":gneJ1_6_1" index="1" speed="13.89" length="20.80" shape="189.60,98.39 210.40,98.40"/>
    </edge>
    <edge id=":gneJ10_0" function="internal">
        <lane id=":gneJ10_0_0" index="0" speed="13.89" length="17.98" shape="-201.60,-292.80 -202.10,-298.06 -203.20,-301.60 -204.30,-305.13 -204.81,-310.40"/>
    </edge>
    <edge id=":gneJ10_1" function="internal">
        <lane id=":gneJ10_1_0" index="0" speed="8.67" length="5.26" shape="-201.60,-292.80 -200.85,-296.65 -200.00,-297.69"/>
    </edge>
    <edge id=":gneJ10_6" function="internal">
        <lane id=":gneJ10_6_0" index="0" speed="8.67" length="11.59" shape="-200.00,-297.69 -198.60,-299.40 -194.85,-301.05 -189.60,-301.60"/>
    </edge>
    <edge id=":gneJ10_2" function="internal">
        <lane id=":gneJ10_2_0" index="0" speed="6.51" length="9.03" shape="-189.60,-298.40 -192.05,-298.05 -193.80,-297.00 -194.85,-295.25 -195.20,-292.80"/>
    </edge>
    <edge id=":gneJ10_3" function="internal">
        <lane id=":gneJ10_3_0" index="0" speed="9.26" length="19.35" shape="-189.60,-298.40 -194.85,-299.15 -198.60,-301.40 -200.85,-305.15 -201.61,-310.40"/>
    </edge>
    <edge id=":gneJ10_4" function="internal">
        <lane id=":gneJ10_4_0" index="0" speed="7.33" length="11.73" shape="-198.41,-310.40 -197.85,-307.95 -196.20,-306.20 -193.45,-305.15 -189.60,-304.80"/>
    </edge>
    <edge id=":gneJ10_5" function="internal">
        <lane id=":gneJ10_5_0" index="0" speed="13.89" length="17.60" shape="-198.41,-310.40 -198.40,-292.80"/>
    </edge>
    <edge id=":gneJ13_0" function="internal">
        <lane id=":gneJ13_0_0" index="0" speed="13.89" length="20.80" shape="395.20,-89.60 395.20,-110.40"/>
        <lane id=":gneJ13_0_1" index="1" speed="13.89" length="20.80" shape="398.40,-89.60 398.40,-110.40"/>
    </edge>
    <edge id=":gneJ13_2" function="internal">
        <lane id=":gneJ13_2_0" index="0" speed="9.26" length="6.95" shape="398.40,-89.60 399.15,-94.85 400.00,-96.27"/>
    </edge>
    <edge id=":gneJ13_9" function="internal">
        <lane id=":gneJ13_9_0" index="0" speed="9.26" length="12.40" shape="400.00,-96.27 401.40,-98.60 405.15,-100.85 410.40,-101.61"/>
    </edge>
    <edge id=":gneJ13_3" function="internal">
        <lane id=":gneJ13_3_0" index="0" speed="6.51" length="9.04" shape="410.41,-95.21 407.95,-94.85 406.20,-93.80 405.15,-92.05 404.80,-89.60"/>
    </edge>
    <edge id=":gneJ13_4" function="internal">
        <lane id=":gneJ13_4_0" index="0" speed="9.26" length="19.36" shape="410.40,-98.41 405.15,-99.15 401.40,-101.40 399.15,-105.15 398.40,-110.40"/>
    </edge>
    <edge id=":gneJ13_5" function="internal">
        <lane id=":gneJ13_5_0" index="0" speed="3.65" length="4.67" shape="410.40,-98.41 409.20,-99.20 408.80,-100.00 409.20,-100.80 410.40,-101.61"/>
    </edge>
    <edge id=":gneJ13_6" function="internal">
        <lane id=":gneJ13_6_0" index="0" speed="6.51" length="9.03" shape="404.80,-110.40 405.15,-107.95 406.20,-106.20 407.95,-105.15 410.40,-104.81"/>
    </edge>
    <edge id=":gneJ13_7" function="internal">
        <lane id=":gneJ13_7_0" index="0" speed="13.89" length="20.80" shape="404.80,-110.40 404.80,-89.60"/>
        <lane id=":gneJ13_7_1" index="1" speed="13.89" length="20.80" shape="401.60,-110.40 401.60,-89.60"/>
    </edge>
    <edge id=":gneJ16_0" function="internal">
        <lane id=":gneJ16_0_0" index="0" speed="13.89" length="20.80" shape="395.20,-489.60 395.20,-510.40"/>
        <lane id=":gneJ16_0_1" index="1" speed="13.89" length="20.80" shape="398.40,-489.60 398.40,-510.40"/>
    </edge>
    <edge id=":gneJ16_2" function="internal">
        <lane id=":gneJ16_2_0" index="0" speed="9.26" length="6.96" shape="398.40,-489.60 399.15,-494.85 400.00,-496.27"/>
    </edge>
    <edge id=":gneJ16_8" function="internal">
        <lane id=":gneJ16_8_0" index="0" speed="9.26" length="12.40" shape="400.00,-496.27 401.40,-498.60 405.15,-500.85 410.40,-501.60"/>
    </edge>
    <edge id=":gneJ16_3" function="internal">
        <lane id=":gneJ16_3_0" index="0" speed="6.51" length="9.03" shape="410.40,-495.20 407.95,-494.85 406.20,-493.80 405.15,-492.05 404.80,-489.60"/>
    </edge>
    <edge id=":gneJ16_4" function="internal">
        <lane id=":gneJ16_4_0" index="0" speed="9.26" length="19.35" shape="410.40,-498.40 405.15,-499.15 401.40,-501.40 399.15,-505.15 398.40,-510.40"/>
    </edge>
    <edge id=":gneJ16_5" function="internal">
        <lane id=":gneJ16_5_0" index="0" speed="6.51" length="9.03" shape="404.80,-510.40 405.15,-507.95 406.20,-506.20 407.95,-505.15 410.40,-504.80"/>
    </edge>
    <edge id=":gneJ16_6" function="internal">
        <lane id=":gneJ16_6_0" index="0" speed="13.89" length="20.80" shape="404.80,-510.40 404.80,-489.60"/>
        <lane id=":gneJ16_6_1" index="1" speed="13.89" length="20.80" shape="401.60,-510.40 401.60,-489.60"/>
    </edge>
    <edge id=":gneJ17_0" function="internal">
        <lane id=":gneJ17_0_0" index="0" speed="3.90" length="2.58" shape="595.20,-493.60 595.10,-494.30 594.80,-494.80 594.30,-495.10 593.60,-495.20"/>
    </edge>
    <edge id=":gneJ17_1" function="internal">
        <lane id=":gneJ17_1_0" index="0" speed="6.08" length="7.74" shape="598.40,-493.60 598.10,-495.70 597.20,-497.20 595.70,-498.10 593.60,-498.40"/>
    </edge>
    <edge id=":gneJ17_2" function="internal">
        <lane id=":gneJ17_2_0" index="0" speed="8.96" length="18.07" shape="593.60,-504.80 598.50,-504.10 602.00,-502.00 604.10,-498.50 604.80,-493.59"/>
    </edge>
    <edge id=":gneJ17_3" function="internal">
        <lane id=":gneJ17_3_0" index="0" speed="7.66" length="12.91" shape="593.60,-501.60 597.10,-501.10 599.60,-499.60 601.10,-497.10 601.60,-493.60"/>
    </edge>
    <edge id=":gneJ2_0" function="internal">
        <lane id=":gneJ2_0_0" index="0" speed="13.89" length="32.18" shape="417.15,89.62 409.74,96.26 402.68,101.01 395.97,103.85 389.60,104.80"/>
    </edge>
    <edge id=":gneJ2_1" function="internal">
        <lane id=":gneJ2_1_0" index="0" speed="13.89" length="29.68" shape="414.89,87.36 407.97,93.59 401.45,98.04 395.33,100.71 389.60,101.60"/>
    </edge>
    <edge id=":gneJ2_2" function="internal">
        <lane id=":gneJ2_2_0" index="0" speed="8.15" length="6.93" shape="414.89,87.36 409.33,90.69 408.87,90.66"/>
    </edge>
    <edge id=":gneJ2_8" function="internal">
        <lane id=":gneJ2_8_0" index="0" speed="8.15" length="16.71" shape="408.87,90.66 403.99,90.35 399.98,86.82 398.40,80.54"/>
    </edge>
    <edge id=":gneJ2_3" function="internal">
        <lane id=":gneJ2_3_0" index="0" speed="5.47" length="9.74" shape="404.80,80.54 405.15,83.63 406.19,85.05 407.93,84.78 410.36,82.84"/>
    </edge>
    <edge id=":gneJ2_4" function="internal">
        <lane id=":gneJ2_4_0" index="0" speed="10.86" length="27.02" shape="401.60,80.54 401.13,88.05 399.35,94.82 395.69,99.72 389.60,101.60"/>
    </edge>
    <edge id=":gneJ2_5" function="internal">
        <lane id=":gneJ2_5_0" index="0" speed="8.71" length="17.00" shape="389.60,95.20 392.05,94.28 393.80,91.53 394.85,86.95 395.20,80.54"/>
    </edge>
    <edge id=":gneJ2_6" function="internal">
        <lane id=":gneJ2_6_0" index="0" speed="13.89" length="24.67" shape="389.60,95.20 394.05,94.43 398.99,92.11 404.43,88.25 410.36,82.84"/>
    </edge>
    <edge id=":gneJ2_7" function="internal">
        <lane id=":gneJ2_7_0" index="0" speed="13.89" length="27.17" shape="389.60,98.40 394.69,97.57 400.22,95.08 406.20,90.92 412.62,85.10"/>
    </edge>
    <edge id=":gneJ20_0" function="internal">
        <lane id=":gneJ20_0_0" index="0" speed="3.90" length="2.58" shape="395.20,-693.60 395.10,-694.30 394.80,-694.80 394.30,-695.10 393.60,-695.20"/>
    </edge>
    <edge id=":gneJ20_1" function="internal">
        <lane id=":gneJ20_1_0" index="0" speed="6.08" length="7.74" shape="398.40,-693.60 398.10,-695.70 397.20,-697.20 395.70,-698.10 393.60,-698.40"/>
    </edge>
    <edge id=":gneJ20_2" function="internal">
        <lane id=":gneJ20_2_0" index="0" speed="8.96" length="18.06" shape="393.60,-704.80 398.50,-704.10 402.00,-702.00 404.10,-698.50 404.80,-693.60"/>
    </edge>
    <edge id=":gneJ20_3" function="internal">
        <lane id=":gneJ20_3_0" index="0" speed="7.66" length="12.90" shape="393.60,-701.60 397.10,-701.10 399.60,-699.60 401.10,-697.10 401.60,-693.60"/>
    </edge>
    <edge id=":gneJ21_0" function="internal">
        <lane id=":gneJ21_0_0" index="0" speed="7.33" length="11.73" shape="195.20,-689.60 194.85,-693.45 193.80,-696.20 192.05,-697.85 189.60,-698.40"/>
    </edge>
    <edge id=":gneJ21_1" function="internal">
        <lane id=":gneJ21_1_0" index="0" speed="9.26" length="19.35" shape="198.40,-689.60 199.15,-694.85 201.40,-698.60 205.15,-700.85 210.40,-701.60"/>
    </edge>
    <edge id=":gneJ21_2" function="internal">
        <lane id=":gneJ21_2_0" index="0" speed="6.51" length="9.03" shape="210.40,-695.20 207.95,-694.85 206.20,-693.80 205.15,-692.05 204.80,-689.60"/>
    </edge>
    <edge id=":gneJ21_3" function="internal">
        <lane id=":gneJ21_3_0" index="0" speed="8.00" length="14.19" shape="210.40,-698.40 206.55,-697.85 203.80,-696.20 202.15,-693.45 201.60,-689.60"/>
    </edge>
    <edge id=":gneJ21_4" function="internal">
        <lane id=":gneJ21_4_0" index="0" speed="13.89" length="20.80" shape="210.40,-698.40 189.60,-698.40"/>
    </edge>
    <edge id=":gneJ21_5" function="internal">
        <lane id=":gneJ21_5_0" index="0" speed="13.89" length="20.80" shape="189.60,-704.80 210.40,-704.80"/>
        <lane id=":gneJ21_5_1" index="1" speed="13.89" length="20.80" shape="189.60,-701.60 210.40,-701.60"/>
    </edge>
    <edge id=":gneJ21_7" function="internal">
        <lane id=":gneJ21_7_0" index="0" speed="9.26" length="6.96" shape="189.60,-701.60 194.85,-700.85 196.27,-700.00"/>
    </edge>
    <edge id=":gneJ21_8" function="internal">
        <lane id=":gneJ21_8_0" index="0" speed="9.26" length="12.40" shape="196.27,-700.00 198.60,-698.60 200.85,-694.85 201.60,-689.60"/>
    </edge>
    <edge id=":gneJ23_0" function="internal">
        <lane id=":gneJ23_0_0" index="0" speed="5.47" length="9.74" shape="-4.80,-680.56 -5.15,-683.65 -6.19,-685.07 -7.93,-684.80 -10.36,-682.86"/>
    </edge>
    <edge id=":gneJ23_1" function="internal">
        <lane id=":gneJ23_1_0" index="0" speed="11.62" length="7.64" shape="-4.80,-680.56 -3.88,-688.15"/>
    </edge>
    <edge id=":gneJ23_2" function="internal">
        <lane id=":gneJ23_2_0" index="0" speed="10.86" length="4.94" shape="-1.60,-680.56 -1.29,-685.49"/>
    </edge>
    <edge id=":gneJ23_7" function="internal">
        <lane id=":gneJ23_7_0" index="0" speed="11.62" length="23.45" shape="-3.88,-688.15 -3.83,-688.57 -0.95,-696.43 3.81,-702.42 10.40,-704.80"/>
    </edge>
    <edge id=":gneJ23_8" function="internal">
        <lane id=":gneJ23_8_0" index="0" speed="10.86" length="22.05" shape="-1.29,-685.49 -1.13,-688.07 0.65,-694.83 4.31,-699.72 10.40,-701.60"/>
    </edge>
    <edge id=":gneJ23_3" function="internal">
        <lane id=":gneJ23_3_0" index="0" speed="9.39" length="19.95" shape="10.40,-698.40 7.95,-697.28 6.20,-693.94 5.15,-688.36 4.80,-680.56"/>
    </edge>
    <edge id=":gneJ23_4" function="internal">
        <lane id=":gneJ23_4_0" index="0" speed="13.89" length="26.95" shape="10.40,-698.40 5.69,-697.32 -0.33,-694.41 -6.74,-690.18 -12.62,-685.13"/>
    </edge>
    <edge id=":gneJ23_5" function="internal">
        <lane id=":gneJ23_5_0" index="0" speed="13.89" length="32.12" shape="-17.15,-689.66 -11.26,-695.00 -4.47,-699.88 2.87,-703.43 10.40,-704.80"/>
    </edge>
    <edge id=":gneJ23_6" function="internal">
        <lane id=":gneJ23_6_0" index="0" speed="8.15" length="23.64" shape="-14.88,-687.39 -9.32,-690.71 -3.99,-690.38 0.02,-686.84 1.60,-680.56"/>
    </edge>
    <edge id=":gneJ3_0" function="internal">
        <lane id=":gneJ3_0_0" index="0" speed="6.51" length="9.03" shape="395.20,-289.60 394.85,-292.05 393.80,-293.80 392.05,-294.85 389.60,-295.20"/>
    </edge>
    <edge id=":gneJ3_1" function="internal">
        <lane id=":gneJ3_1_0" index="0" speed="13.89" length="20.80" shape="395.20,-289.60 395.20,-310.40"/>
        <lane id=":gneJ3_1_1" index="1" speed="13.89" length="20.80" shape="398.40,-289.60 398.40,-310.40"/>
    </edge>
    <edge id=":gneJ3_3" function="internal">
        <lane id=":gneJ3_3_0" index="0" speed="9.26" length="6.96" shape="398.40,-289.60 399.15,-294.85 400.00,-296.27"/>
    </edge>
    <edge id=":gneJ3_15" function="internal">
        <lane id=":gneJ3_15_0" index="0" speed="9.26" length="12.40" shape="400.00,-296.27 401.40,-298.60 405.15,-300.85 410.40,-301.61"/>
    </edge>
    <edge id=":gneJ3_4" function="internal">
        <lane id=":gneJ3_4_0" index="0" speed="7.33" length="11.73" shape="410.40,-298.41 407.95,-297.85 406.20,-296.20 405.15,-293.45 404.80,-289.60"/>
    </edge>
    <edge id=":gneJ3_5" function="internal">
        <lane id=":gneJ3_5_0" index="0" speed="13.89" length="20.80" shape="410.40,-298.41 389.60,-298.40"/>
    </edge>
    <edge id=":gneJ3_6" function="internal">
        <lane id=":gneJ3_6_0" index="0" speed="9.26" length="19.36" shape="410.40,-298.41 405.15,-299.15 401.40,-301.40 399.15,-305.15 398.40,-310.40"/>
    </edge>
    <edge id=":gneJ3_7" function="internal">
        <lane id=":gneJ3_7_0" index="0" speed="6.51" length="9.03" shape="404.80,-310.40 405.15,-307.95 406.20,-306.20 407.95,-305.15 410.40,-304.81"/>
    </edge>
    <edge id=":gneJ3_8" function="internal">
        <lane id=":gneJ3_8_0" index="0" speed="13.89" length="20.80" shape="404.80,-310.40 404.80,-289.60"/>
        <lane id=":gneJ3_8_1" index="1" speed="13.89" length="20.80" shape="401.60,-310.40 401.60,-289.60"/>
    </edge>
    <edge id=":gneJ3_10" function="internal">
        <lane id=":gneJ3_10_0" index="0" speed="9.26" length="6.96" shape="401.60,-310.40 400.85,-305.15 400.00,-303.73"/>
    </edge>
    <edge id=":gneJ3_16" function="internal">
        <lane id=":gneJ3_16_0" index="0" speed="9.26" length="12.40" shape="400.00,-303.73 398.60,-301.40 394.85,-299.15 389.60,-298.40"/>
    </edge>
    <edge id=":gneJ3_11" function="internal">
        <lane id=":gneJ3_11_0" index="0" speed="6.51" length="9.03" shape="389.60,-304.80 392.05,-305.15 393.80,-306.20 394.85,-307.95 395.20,-310.40"/>
    </edge>
    <edge id=":gneJ3_12" function="internal">
        <lane id=":gneJ3_12_0" index="0" speed="13.89" length="20.80" shape="389.60,-304.80 410.40,-304.81"/>
        <lane id=":gneJ3_12_1" index="1" speed="13.89" length="20.80" shape="389.60,-301.60 410.40,-301.61"/>
    </edge>
    <edge id=":gneJ3_14" function="internal">
        <lane id=":gneJ3_14_0" index="0" speed="9.26" length="19.35" shape="389.60,-301.60 394.85,-300.85 398.60,-298.60 400.85,-294.85 401.60,-289.60"/>
    </edge>
    <edge id=":gneJ4_0" function="internal">
        <lane id=":gneJ4_0_0" index="0" speed="7.33" length="11.73" shape="195.20,-289.60 194.85,-293.45 193.80,-296.20 192.05,-297.85 189.60,-298.40"/>
    </edge>
    <edge id=":gneJ4_1" function="internal">
        <lane id=":gneJ4_1_0" index="0" speed="13.89" length="20.80" shape="195.20,-289.60 195.20,-310.40"/>
        <lane id=":gneJ4_1_1" index="1" speed="13.89" length="20.80" shape="198.40,-289.60 198.40,-310.40"/>
    </edge>
    <edge id=":gneJ4_3" function="internal">
        <lane id=":gneJ4_3_0" index="0" speed="9.26" length="6.96" shape="198.40,-289.60 199.15,-294.85 200.00,-296.27"/>
    </edge>
    <edge id=":gneJ4_15" function="internal">
        <lane id=":gneJ4_15_0" index="0" speed="9.26" length="12.40" shape="200.00,-296.27 201.40,-298.60 205.15,-300.85 210.40,-301.60"/>
    </edge>
    <edge id=":gneJ4_4" function="internal">
        <lane id=":gneJ4_4_0" index="0" speed="6.51" length="9.03" shape="210.40,-295.20 207.95,-294.85 206.20,-293.80 205.15,-292.05 204.80,-289.60"/>
    </edge>
    <edge id=":gneJ4_5" function="internal">
        <lane id=":gneJ4_5_0" index="0" speed="13.89" length="20.80" shape="210.40,-298.40 189.60,-298.40"/>
    </edge>
    <edge id=":gneJ4_6" function="internal">
        <lane id=":gneJ4_6_0" index="0" speed="9.26" length="19.35" shape="210.40,-298.40 205.15,-299.15 201.40,-301.40 199.15,-305.15 198.40,-310.40"/>
    </edge>
    <edge id=":gneJ4_7" function="internal">
        <lane id=":gneJ4_7_0" index="0" speed="6.51" length="9.03" shape="204.80,-310.40 205.15,-307.95 206.20,-306.20 207.95,-305.15 210.40,-304.80"/>
    </edge>
    <edge id=":gneJ4_8" function="internal">
        <lane id=":gneJ4_8_0" index="0" speed="13.89" length="20.80" shape="204.80,-310.40 204.80,-289.60"/>
        <lane id=":gneJ4_8_1" index="1" speed="13.89" length="20.80" shape="201.60,-310.40 201.60,-289.60"/>
    </edge>
    <edge id=":gneJ4_10" function="internal">