<?xml version="1.0" encoding="UTF-8"?>

<!-- generated on ven. 22 mars 2019 15:01:52 CET by Eclipse SUMO netedit Version 1.1.0
<configuration xmlns:xsi="http://www.w3.org/2001/XMLSchema-instance" xsi:noNamespaceSchemaLocation="http://sumo.dlr.de/xsd/netconvertConfiguration.xsd">

    <output>
        <output-file value="/home/clement/testlight.net.xml"/>
    </output>

    <processing>
        <offset.disable-normalization value="true"/>
    </processing>

    <junctions>
        <no-turnarounds value="true"/>
    </junctions>

</configuration>
-->

<net version="1.1" junctionCornerDetail="5" limitTurnSpeed="5.50" xmlns:xsi="http://www.w3.org/2001/XMLSchema-instance" xsi:noNamespaceSchemaLocation="http://sumo.dlr.de/xsd/net_file.xsd">

    <location netOffset="0.00,0.00" convBoundary="-100.00,-1400.00,2500.00,200.10" origBoundary="10000000000.00,10000000000.00,-10000000000.00,-10000000000.00" projParameter="!"/>

    <edge id=":gneJ0_0" function="internal">
        <lane id=":gneJ0_0_0" index="0" speed="5.91" length="2.91" shape="-98.40,196.00 -98.87,198.87"/>
    </edge>
    <edge id=":gneJ0_1" function="internal">
        <lane id=":gneJ0_1_0" index="0" speed="4.70" length="6.72" shape="-98.77,198.97 -104.80,196.00"/>
    </edge>
    <edge id=":gneJ0_2" function="internal">
        <lane id=":gneJ0_2_0" index="0" speed="3.90" length="4.10" shape="-98.77,198.97 -101.60,196.00"/>
    </edge>
    <edge id=":gneJ0_3" function="internal">
        <lane id=":gneJ0_3_0" index="0" speed="13.89" length="0.14" shape="-98.77,198.97 -98.87,198.87"/>
    </edge>
    <edge id=":gneJ12_0" function="internal">
        <lane id=":gneJ12_0_0" index="0" speed="13.89" length="0.14" shape="401.23,-1201.03 401.13,-1201.13"/>
    </edge>
    <edge id=":gneJ12_1" function="internal">
        <lane id=":gneJ12_1_0" index="0" speed="4.41" length="5.72" shape="401.23,-1201.03 402.05,-1199.88 401.86,-1199.06 400.68,-1198.56 398.50,-1198.40"/>
    </edge>
    <edge id=":gneJ12_2" function="internal">
        <lane id=":gneJ12_2_0" index="0" speed="7.45" length="4.86" shape="398.50,-1204.80 399.64,-1204.45 400.06,-1203.56 400.36,-1202.38 401.13,-1201.13"/>
    </edge>
    <edge id=":gneJ13_0" function="internal">
        <lane id=":gneJ13_0_0" index="0" speed="4.73" length="6.37" shape="404.64,-1195.81 401.13,-1201.13"/>
    </edge>
    <edge id=":gneJ13_1" function="internal">
        <lane id=":gneJ13_1_0" index="0" speed="6.61" length="4.75" shape="401.23,-1201.03 403.28,-1205.32"/>
    </edge>
    <edge id=":gneJ13_2" function="internal">
        <lane id=":gneJ13_2_0" index="0" speed="5.20" length="2.74" shape="401.23,-1201.03 403.73,-1202.15"/>
    </edge>
    <edge id=":gneJ13_3" function="internal">
        <lane id=":gneJ13_3_0" index="0" speed="13.89" length="0.14" shape="401.23,-1201.03 401.13,-1201.13"/>
    </edge>
    <edge id=":gneJ16_0" function="internal">
        <lane id=":gneJ16_0_0" index="0" speed="3.24" length="3.20" shape="-100.00,-1198.40 -100.00,-1201.60"/>
    </edge>
    <edge id=":gneJ16_1" function="internal">
        <lane id=":gneJ16_1_0" index="0" speed="4.77" length="9.60" shape="-100.00,-1195.20 -100.00,-1204.80"/>
    </edge>
    <edge id=":gneJ16_2" function="internal">
        <lane id=":gneJ16_2_0" index="0" speed="3.24" length="3.20" shape="-100.00,-1198.40 -100.00,-1201.60"/>
    </edge>
    <edge id=":gneJ17_0" function="internal">
        <lane id=":gneJ17_0_0" index="0" speed="6.51" length="9.03" shape="198.40,-1189.60 198.05,-1192.05 197.00,-1193.80 195.25,-1194.85 192.80,-1195.20"/>
    </edge>
    <edge id=":gneJ17_1" function="internal">
        <lane id=":gneJ17_1_0" index="0" speed="7.33" length="11.73" shape="198.40,-1189.60 198.05,-1193.45 197.00,-1196.20 195.25,-1197.85 192.80,-1198.40"/>
    </edge>
    <edge id=":gneJ17_2" function="internal">
        <lane id=":gneJ17_2_0" index="0" speed="8.67" length="16.85" shape="192.80,-1201.60 196.65,-1200.85 199.40,-1198.60 201.05,-1194.85 201.60,-1189.60"/>
    </edge>
    <edge id=":gneJ18_0" function="internal">
        <lane id=":gneJ18_0_0" index="0" speed="6.51" length="9.03" shape="198.40,-792.80 198.05,-795.25 197.00,-797.00 195.25,-798.05 192.80,-798.40"/>
    </edge>
    <edge id=":gneJ18_1" function="internal">
        <lane id=":gneJ18_1_0" index="0" speed="13.89" length="17.60" shape="198.40,-792.80 198.40,-810.40"/>
    </edge>
    <edge id=":gneJ18_2" function="internal">
        <lane id=":gneJ18_2_0" index="0" speed="8.00" length="14.19" shape="198.40,-792.80 198.95,-796.65 200.60,-799.40 203.35,-801.05 207.20,-801.60"/>
    </edge>
    <edge id=":gneJ18_3" function="internal">
        <lane id=":gneJ18_3_0" index="0" speed="6.51" length="9.03" shape="207.20,-798.40 204.75,-798.05 203.00,-797.00 201.95,-795.25 201.60,-792.80"/>
    </edge>
    <edge id=":gneJ18_4" function="internal">
        <lane id=":gneJ18_4_0" index="0" speed="13.89" length="14.40" shape="207.20,-798.40 192.80,-798.40"/>
    </edge>
    <edge id=":gneJ18_5" function="internal">
        <lane id=":gneJ18_5_0" index="0" speed="8.67" length="7.74" shape="207.20,-798.40 203.35,-799.15 200.60,-801.40 200.49,-801.64"/>
    </edge>
    <edge id=":gneJ18_12" function="internal">
        <lane id=":gneJ18_12_0" index="0" speed="8.67" length="9.11" shape="200.49,-801.64 198.95,-805.15 198.40,-810.40"/>
    </edge>
    <edge id=":gneJ18_6" function="internal">
        <lane id=":gneJ18_6_0" index="0" speed="7.33" length="11.73" shape="201.60,-810.40 201.95,-806.55 203.00,-803.80 204.75,-802.15 207.20,-801.60"/>
    </edge>
    <edge id=":gneJ18_7" function="internal">
        <lane id=":gneJ18_7_0" index="0" speed="13.89" length="17.60" shape="201.60,-810.40 201.60,-792.80"/>
    </edge>
    <edge id=":gneJ18_8" function="internal">
        <lane id=":gneJ18_8_0" index="0" speed="8.67" length="16.85" shape="201.60,-810.40 201.05,-805.15 199.40,-801.40 196.65,-799.15 192.80,-798.40"/>
    </edge>
    <edge id=":gneJ18_9" function="internal">
        <lane id=":gneJ18_9_0" index="0" speed="6.51" length="9.03" shape="192.80,-804.80 195.25,-805.15 197.00,-806.20 198.05,-807.95 198.40,-810.40"/>
    </edge>
    <edge id=":gneJ18_10" function="internal">
        <lane id=":gneJ18_10_0" index="0" speed="13.89" length="14.83" shape="192.80,-804.80 197.46,-804.30 200.89,-803.20 203.88,-802.10 207.20,-801.60"/>
    </edge>
    <edge id=":gneJ18_11" function="internal">
        <lane id=":gneJ18_11_0" index="0" speed="8.00" length="5.93" shape="192.80,-801.60 196.65,-801.05 198.40,-800.00"/>
    </edge>
    <edge id=":gneJ18_13" function="internal">
        <lane id=":gneJ18_13_0" index="0" speed="8.00" length="8.26" shape="198.40,-800.00 199.40,-799.40 201.05,-796.65 201.60,-792.80"/>
    </edge>
    <edge id=":gneJ22_0" function="internal">
        <lane id=":gneJ22_0_0" index="0" speed="6.51" length="9.03" shape="398.40,-792.80 398.05,-795.25 397.00,-797.00 395.25,-798.05 392.80,-798.40"/>
    </edge>
    <edge id=":gneJ22_1" function="internal">
        <lane id=":gneJ22_1_0" index="0" speed="13.89" length="14.40" shape="398.40,-792.80 398.40,-807.20"/>
    </edge>
    <edge id=":gneJ22_2" function="internal">
        <lane id=":gneJ22_2_0" index="0" speed="8.00" length="5.93" shape="398.40,-792.80 398.95,-796.65 400.00,-798.40"/>
    </edge>
    <edge id=":gneJ22_3" function="internal">
        <lane id=":gneJ22_3_0" index="0" speed="3.24" length="1.60" shape="398.40,-792.80 400.00,-792.80"/>
    </edge>
    <edge id=":gneJ22_20" function="internal">
        <lane id=":gneJ22_20_0" index="0" speed="8.00" length="8.26" shape="400.00,-798.40 400.60,-799.40 403.35,-801.05 407.20,-801.60"/>
    </edge>
    <edge id=":gneJ22_21" function="internal">
        <lane id=":gneJ22_21_0" index="0" speed="3.24" length="1.60" shape="400.00,-792.80 401.60,-792.80"/>
    </edge>
    <edge id=":gneJ22_4" function="internal">
        <lane id=":gneJ22_4_0" index="0" speed="6.51" length="9.03" shape="407.20,-798.40 404.75,-798.05 403.00,-797.00 401.95,-795.25 401.60,-792.80"/>
    </edge>
    <edge id=":gneJ22_5" function="internal">
        <lane id=":gneJ22_5_0" index="0" speed="6.51" length="9.03" shape="407.20,-798.40 404.75,-798.05 403.00,-797.00 401.95,-795.25 401.60,-792.80"/>
    </edge>
    <edge id=":gneJ22_6" function="internal">
        <lane id=":gneJ22_6_0" index="0" speed="13.89" length="14.40" shape="407.20,-798.40 392.80,-798.40"/>
    </edge>
    <edge id=":gneJ22_7" function="internal">
        <lane id=":gneJ22_7_0" index="0" speed="8.00" length="14.19" shape="407.20,-798.40 403.35,-798.95 400.60,-800.60 398.95,-803.35 398.40,-807.20"/>
    </edge>
    <edge id=":gneJ22_8" function="internal">
        <lane id=":gneJ22_8_0" index="0" speed="6.51" length="9.03" shape="401.60,-807.20 401.95,-804.75 403.00,-803.00 404.75,-801.95 407.20,-801.60"/>
    </edge>
    <edge id=":gneJ22_9" function="internal">
        <lane id=":gneJ22_9_0" index="0" speed="13.89" length="14.40" shape="401.60,-807.20 401.60,-792.80"/>
    </edge>
    <edge id=":gneJ22_10" function="internal">
        <lane id=":gneJ22_10_0" index="0" speed="13.89" length="14.40" shape="401.60,-807.20 401.60,-792.80"/>
    </edge>
    <edge id=":gneJ22_11" function="internal">
        <lane id=":gneJ22_11_0" index="0" speed="8.00" length="5.93" shape="401.60,-807.20 401.05,-803.35 400.00,-801.60"/>
    </edge>
    <edge id=":gneJ22_22" function="internal">
        <lane id=":gneJ22_22_0" index="0" speed="8.00" length="8.26" shape="400.00,-801.60 399.40,-800.60 396.65,-798.95 392.80,-798.40"/>
    </edge>
    <edge id=":gneJ22_12" function="internal">
        <lane id=":gneJ22_12_0" index="0" speed="6.51" length="9.03" shape="392.80,-801.60 395.25,-801.95 397.00,-803.00 398.05,-804.75 398.40,-807.20"/>
    </edge>
    <edge id=":gneJ22_13" function="internal">
        <lane id=":gneJ22_13_0" index="0" speed="13.89" length="14.40" shape="392.80,-801.60 407.20,-801.60"/>
    </edge>
    <edge id=":gneJ22_14" function="internal">
        <lane id=":gneJ22_14_0" index="0" speed="8.00" length="14.19" shape="392.80,-801.60 396.65,-801.05 399.40,-799.40 401.05,-796.65 401.60,-792.80"/>
    </edge>
    <edge id=":gneJ22_15" function="internal">
        <lane id=":gneJ22_15_0" index="0" speed="8.00" length="14.19" shape="392.80,-801.60 396.65,-801.05 399.40,-799.40 401.05,-796.65 401.60,-792.80"/>
    </edge>
    <edge id=":gneJ22_16" function="internal">
        <lane id=":gneJ22_16_0" index="0" speed="6.51" length="9.03" shape="398.40,-792.80 398.05,-795.25 397.00,-797.00 395.25,-798.05 392.80,-798.40"/>
    </edge>
    <edge id=":gneJ22_17" function="internal">
        <lane id=":gneJ22_17_0" index="0" speed="13.89" length="14.40" shape="398.40,-792.80 398.40,-807.20"/>
    </edge>
    <edge id=":gneJ22_18" function="internal">
        <lane id=":gneJ22_18_0" index="0" speed="8.00" length="14.19" shape="398.40,-792.80 398.95,-796.65 400.60,-799.40 403.35,-801.05 407.20,-801.60"/>
    </edge>
    <edge id=":gneJ22_19" function="internal">
        <lane id=":gneJ22_19_0" index="0" speed="3.24" length="3.20" shape="398.40,-792.80 401.60,-792.80"/>
    </edge>
    <edge id=":gneJ23_0" function="internal">
        <lane id=":gneJ23_0_0" index="0" speed="11.22" length="11.56" shape="204.12,-493.62 202.82,-494.31 200.50,-494.80 197.16,-495.10 192.80,-495.20"/>
    </edge>
    <edge id=":gneJ23_1" function="internal">
        <lane id=":gneJ23_1_0" index="0" speed="12.78" length="15.12" shape="204.12,-493.62 201.62,-496.61 199.83,-499.87 198.76,-503.40 198.40,-507.20"/>
    </edge>
    <edge id=":gneJ23_2" function="internal">
        <lane id=":gneJ23_2_0" index="0" speed="4.22" length="5.15" shape="204.12,-493.62 202.54,-498.52"/>
    </edge>
    <edge id=":gneJ23_13" function="internal">
        <lane id=":gneJ23_13_0" index="0" speed="4.22" length="1.86" shape="202.54,-498.52 201.97,-500.29"/>
    </edge>
    <edge id=":gneJ23_3" function="internal">
        <lane id=":gneJ23_3_0" index="0" speed="13.89" length="1.04" shape="201.23,-501.03 201.97,-500.29"/>
    </edge>
    <edge id=":gneJ23_4" function="internal">
        <lane id=":gneJ23_4_0" index="0" speed="13.89" length="2.43" shape="201.23,-501.03 202.95,-499.31"/>
    </edge>
    <edge id=":gneJ23_5" function="internal">
        <lane id=":gneJ23_5_0" index="0" speed="5.64" length="1.24" shape="201.23,-501.03 201.69,-499.88"/>
    </edge>
    <edge id=":gneJ23_6" function="internal">
        <lane id=":gneJ23_6_0" index="0" speed="4.71" length="6.79" shape="201.23,-501.03 198.40,-507.20"/>
    </edge>
    <edge id=":gneJ23_14" function="internal">
        <lane id=":gneJ23_14_0" index="0" speed="5.64" length="9.18" shape="201.69,-499.88 200.44,-499.06 197.48,-498.56 192.80,-498.40"/>
    </edge>
    <edge id=":gneJ23_7" function="internal">
        <lane id=":gneJ23_7_0" index="0" speed="9.01" length="7.32" shape="201.60,-507.20 201.31,-505.01 200.87,-503.37 200.88,-501.92 201.97,-500.29"/>
    </edge>
    <edge id=":gneJ23_8" function="internal">
        <lane id=":gneJ23_8_0" index="0" speed="9.47" length="8.11" shape="201.60,-507.20 201.68,-504.26 201.94,-501.96 202.36,-500.31 202.95,-499.31"/>
    </edge>
    <edge id=":gneJ23_9" function="internal">
        <lane id=":gneJ23_9_0" index="0" speed="8.00" length="14.19" shape="201.60,-507.20 201.05,-503.35 199.40,-500.60 196.65,-498.95 192.80,-498.40"/>
    </edge>
    <edge id=":gneJ23_10" function="internal">
        <lane id=":gneJ23_10_0" index="0" speed="6.51" length="9.03" shape="192.80,-501.60 195.25,-501.95 197.00,-503.00 198.05,-504.75 198.40,-507.20"/>
    </edge>
    <edge id=":gneJ23_11" function="internal">
        <lane id=":gneJ23_11_0" index="0" speed="10.14" length="4.83" shape="192.80,-501.60 196.32,-501.52 197.62,-501.40"/>
    </edge>
    <edge id=":gneJ23_12" function="internal">
        <lane id=":gneJ23_12_0" index="0" speed="10.76" length="7.94" shape="192.80,-501.60 196.38,-501.46 199.27,-501.03 200.64,-500.58"/>
    </edge>
    <edge id=":gneJ23_15" function="internal">
        <lane id=":gneJ23_15_0" index="0" speed="10.14" length="4.54" shape="197.62,-501.40 199.02,-501.27 200.91,-500.87 201.97,-500.29"/>
    </edge>
    <edge id=":gneJ23_16" function="internal">
        <lane id=":gneJ23_16_0" index="0" speed="10.76" length="2.66" shape="200.64,-500.58 201.46,-500.31 202.95,-499.31"/>
    </edge>
    <edge id=":gneJ26_0" function="internal">
        <lane id=":gneJ26_0_0" index="0" speed="13.89" length="0.14" shape="201.23,-501.03 201.13,-501.13"/>
    </edge>
    <edge id=":gneJ27_0" function="internal">
        <lane id=":gneJ27_0_0" index="0" speed="13.89" length="0.14" shape="201.23,-501.03 201.13,-501.13"/>
    </edge>
    <edge id=":gneJ27_1" function="internal">
        <lane id=":gneJ27_1_0" index="0" speed="13.89" length="0.14" shape="201.23,-501.03 201.13,-501.13"/>
    </edge>
    <edge id=":gneJ27_2" function="internal">
        <lane id=":gneJ27_2_0" index="0" speed="13.89" length="0.14" shape="201.23,-501.03 201.13,-501.13"/>
    </edge>
    <edge id=":gneJ27_3" function="internal">
        <lane id=":gneJ27_3_0" index="0" speed="13.89" length="0.14" shape="201.23,-501.03 201.13,-501.13"/>
    </edge>
    <edge id=":gneJ28_0" function="internal">
        <lane id=":gneJ28_0_0" index="0" speed="13.89" length="0.14" shape="201.23,-501.03 201.13,-501.13"/>
    </edge>
    <edge id=":gneJ28_1" function="internal">
        <lane id=":gneJ28_1_0" index="0" speed="13.89" length="0.14" shape="201.23,-501.03 201.13,-501.13"/>
    </edge>
    <edge id=":gneJ28_2" function="internal">
        <lane id=":gneJ28_2_0" index="0" speed="13.89" length="1.38" shape="202.11,-500.15 201.13,-501.13"/>
    </edge>
    <edge id=":gneJ28_3" function="internal">
        <lane id=":gneJ28_3_0" index="0" speed="13.89" length="1.38" shape="202.11,-500.15 201.13,-501.13"/>
    </edge>
    <edge id=":gneJ29_0" function="internal">
        <lane id=":gneJ29_0_0" index="0" speed="13.89" length="0.17" shape="401.13,-301.13 401.17,-301.09 401.18,-301.05 401.17,-301.02 401.13,-301.00"/>
    </edge>
    <edge id=":gneJ29_1" function="internal">
        <lane id=":gneJ29_1_0" index="0" speed="3.24" length="3.20" shape="401.13,-301.13 398.87,-298.87"/>
    </edge>
    <edge id=":gneJ3_0" function="internal">
        <lane id=":gneJ3_0_0" index="0" speed="6.71" length="15.45" shape="-86.40,208.00 -98.87,198.87"/>
    </edge>
    <edge id=":gneJ3_1" function="internal">
        <lane id=":gneJ3_1_0" index="0" speed="13.89" length="0.14" shape="-98.77,198.97 -98.87,198.87"/>
    </edge>
    <edge id=":gneJ3_2" function="internal">
        <lane id=":gneJ3_2_0" index="0" speed="11.60" length="12.38" shape="-98.77,198.97 -86.40,198.40"/>
    </edge>
    <edge id=":gneJ30_0" function="internal">
        <lane id=":gneJ30_0_0" index="0" speed="8.00" length="5.68" shape="401.60,-300.00 397.93,-304.33"/>
    </edge>
    <edge id=":gneJ30_1" function="internal">
        <lane id=":gneJ30_1_0" index="0" speed="5.97" length="4.67" shape="401.23,-301.03 397.93,-304.33"/>
    </edge>
    <edge id=":gneJ30_2" function="internal">
        <lane id=":gneJ30_2_0" index="0" speed="4.56" length="3.01" shape="401.23,-301.03 398.40,-300.00"/>
    </edge>
    <edge id=":gneJ31_0" function="internal">
        <lane id=":gneJ31_0_0" index="0" speed="8.67" length="16.85" shape="401.60,-310.40 401.05,-305.15 399.40,-301.40 396.65,-299.15 392.80,-298.40"/>
    </edge>
    <edge id=":gneJ31_1" function="internal">
        <lane id=":gneJ31_1_0" index="0" speed="6.51" length="9.03" shape="392.80,-304.80 395.25,-305.15 397.00,-306.20 398.05,-307.95 398.40,-310.40"/>
    </edge>
    <edge id=":gneJ32_0" function="internal">
        <lane id=":gneJ32_0_0" index="0" speed="3.24" length="3.20" shape="-100.00,-298.40 -100.00,-301.60"/>
    </edge>
    <edge id=":gneJ32_1" function="internal">
        <lane id=":gneJ32_1_0" index="0" speed="4.08" length="6.40" shape="-100.00,-298.40 -100.00,-304.80"/>
    </edge>
    <edge id=":gneJ32_2" function="internal">
        <lane id=":gneJ32_2_0" index="0" speed="3.24" length="3.20" shape="-100.00,-298.40 -100.00,-301.60"/>
    </edge>
    <edge id=":gneJ33_0" function="internal">
        <lane id=":gneJ33_0_0" index="0" speed="3.90" length="2.58" shape="98.40,-296.80 98.30,-297.50 98.00,-298.00 97.50,-298.30 96.80,-298.40"/>
    </edge>
    <edge id=":gneJ33_1" function="internal">
        <lane id=":gneJ33_1_0" index="0" speed="6.08" length="7.74" shape="96.80,-301.60 98.90,-301.30 100.40,-300.40 101.30,-298.90 101.60,-296.80"/>
    </edge>
    <edge id=":gneJ34_0" function="internal">
        <lane id=":gneJ34_0_0" index="0" speed="6.08" length="7.74" shape="103.20,201.60 101.10,201.30 99.60,200.40 98.70,198.90 98.40,196.80"/>
    </edge>
    <edge id=":gneJ34_1" function="internal">
        <lane id=":gneJ34_1_0" index="0" speed="3.90" length="2.58" shape="101.60,196.80 101.70,197.50 102.00,198.00 102.50,198.30 103.20,198.40"/>
    </edge>
    <edge id=":gneJ35_0" function="internal">
        <lane id=":gneJ35_0_0" index="0" speed="6.08" length="7.74" shape="401.60,196.80 401.30,198.90 400.40,200.40 398.90,201.30 396.80,201.60"/>
    </edge>
    <edge id=":gneJ35_1" function="internal">
        <lane id=":gneJ35_1_0" index="0" speed="3.90" length="2.58" shape="396.80,198.40 397.50,198.30 398.00,198.00 398.30,197.50 398.40,196.80"/>
    </edge>
    <edge id=":gneJ41_0" function="internal">
        <lane id=":gneJ41_0_0" index="0" speed="4.08" length="6.40" shape="400.00,-595.20 400.00,-601.60"/>
    </edge>
    <edge id=":gneJ41_1" function="internal">
        <lane id=":gneJ41_1_0" index="0" speed="3.24" length="3.20" shape="400.00,-598.40 400.00,-601.60"/>
    </edge>
    <edge id=":gneJ42_0" function="internal">
        <lane id=":gneJ42_0_0" index="0" speed="3.90" length="2.58" shape="798.40,-596.80 798.30,-597.50 798.00,-598.00 797.50,-598.30 796.80,-598.40"/>
    </edge>
    <edge id=":gneJ42_1" function="internal">
        <lane id=":gneJ42_1_0" index="0" speed="6.08" length="7.74" shape="796.80,-601.60 798.90,-601.30 800.40,-600.40 801.30,-598.90 801.60,-596.80"/>
    </edge>
    <edge id=":gneJ43_0" function="internal">
        <lane id=":gneJ43_0_0" index="0" speed="6.08" length="7.74" shape="803.20,201.60 801.10,201.30 799.60,200.40 798.70,198.90 798.40,196.80"/>
    </edge>
    <edge id=":gneJ43_1" function="internal">
        <lane id=":gneJ43_1_0" index="0" speed="3.90" length="2.58" shape="801.60,196.80 801.70,197.50 802.00,198.00 802.50,198.30 803.20,198.40"/>
    </edge>
    <edge id=":gneJ44_0" function="internal">
        <lane id=":gneJ44_0_0" index="0" speed="6.08" length="7.74" shape="1201.60,196.80 1201.30,198.90 1200.40,200.40 1198.90,201.30 1196.80,201.60"/>
    </edge>
    <edge id=":gneJ44_1" function="internal">
        <lane id=":gneJ44_1_0" index="0" speed="3.90" length="2.58" shape="1196.80,198.40 1197.50,198.30 1198.00,198.00 1198.30,197.50 1198.40,196.80"/>
    </edge>
    <edge id=":gneJ50_0" function="internal">
        <lane id=":gneJ50_0_0" index="0" speed="3.90" length="2.58" shape="798.40,-1196.80 798.30,-1197.50 798.00,-1198.00 797.50,-1198.30 796.80,-1198.40"/>
    </edge>
    <edge id=":gneJ50_1" function="internal">
        <lane id=":gneJ50_1_0" index="0" speed="6.08" length="7.74" shape="796.80,-1201.60 798.90,-1201.30 800.40,-1200.40 801.30,-1198.90 801.60,-1196.80"/>
    </edge>
    <edge id=":gneJ53_0" function="internal">
        <lane id=":gneJ53_0_0" index="0" speed="7.22" length="11.36" shape="1598.40,-790.02 1598.05,-793.69 1597.00,-796.31 1595.25,-797.88 1592.80,-798.40"/>
    </edge>
    <edge id=":gneJ53_1" function="internal">
        <lane id=":gneJ53_1_0" index="0" speed="7.38" length="17.29" shape="1598.40,-790.02 1599.07,-795.25 1601.10,-797.95 1604.47,-798.13 1609.19,-795.80"/>
    </edge>
    <edge id=":gneJ53_2" function="internal">
        <lane id=":gneJ53_2_0" index="0" speed="5.61" length="9.32" shape="1607.42,-793.13 1604.87,-794.39 1603.05,-794.29 1601.96,-792.84 1601.60,-790.02"/>
    </edge>
    <edge id=":gneJ53_3" function="internal">
        <lane id=":gneJ53_3_0" index="0" speed="13.89" length="15.73" shape="1607.42,-793.13 1604.08,-795.13 1600.42,-796.81 1596.61,-797.97 1592.80,-798.40"/>
    </edge>
    <edge id=":gneJ53_4" function="internal">
        <lane id=":gneJ53_4_0" index="0" speed="13.89" length="17.57" shape="1592.80,-801.60 1596.89,-801.08 1601.31,-799.74 1605.58,-797.87 1609.19,-795.80"/>
    </edge>
    <edge id=":gneJ53_5" function="internal">
        <lane id=":gneJ53_5_0" index="0" speed="8.58" length="7.20" shape="1592.80,-801.60 1596.65,-800.88 1599.22,-798.84"/>
    </edge>
    <edge id=":gneJ53_6" function="internal">
        <lane id=":gneJ53_6_0" index="0" speed="8.58" length="9.30" shape="1599.22,-798.84 1599.40,-798.71 1601.05,-795.09 1601.60,-790.02"/>
    </edge>
    <edge id=":gneJ59_0" function="internal">
        <lane id=":gneJ59_0_0" index="0" speed="4.05" length="1.58" shape="1898.40,-598.29 1898.36,-598.69 1898.22,-599.05 1898.00,-599.36 1897.69,-599.62"/>
    </edge>
    <edge id=":gneJ59_1" function="internal">
        <lane id=":gneJ59_1_0" index="0" speed="6.36" length="4.73" shape="1899.46,-602.28 1900.40,-601.50 1901.07,-600.57 1901.47,-599.50 1901.60,-598.29"/>
    </edge>
    <edge id=":gneJ8_0" function="internal">
        <lane id=":gneJ8_0_0" index="0" speed="12.32" length="10.24" shape="2508.00,-613.23 2507.93,-610.23 2507.55,-608.15 2506.61,-606.26 2504.86,-603.81"/>
    </edge>
    <edge id=":gneJ8_1" function="internal">
        <lane id=":gneJ8_1_0" index="0" speed="7.86" length="3.98" shape="2497.18,-609.57 2497.86,-610.52 2498.22,-611.26 2498.37,-612.06 2498.40,-613.23"/>
    </edge>
    <edge id=":gneJ9_0" function="internal">
        <lane id=":gneJ9_0_0" index="0" speed="6.66" length="6.56" shape="2498.40,-1088.29 2498.19,-1090.00 2497.55,-1091.42 2496.49,-1092.57 2495.01,-1093.44"/>
    </edge>
    <edge id=":gneJ9_1" function="internal">
        <lane id=":gneJ9_1_0" index="0" speed="7.56" length="8.67" shape="2498.40,-1088.29 2498.27,-1091.49 2497.87,-1093.90 2497.20,-1095.53 2496.27,-1096.38"/>
    </edge>
    <edge id=":gneJ9_2" function="internal">
        <lane id=":gneJ9_2_0" index="0" speed="8.49" length="11.12" shape="2498.40,-1088.29 2498.39,-1090.38 2498.31,-1094.03 2498.05,-1097.57 2497.53,-1099.32"/>
    </edge>
    <edge id=":gneJ9_3" function="internal">
        <lane id=":gneJ9_3_0" index="0" speed="10.62" length="17.82" shape="2498.79,-1102.26 2502.82,-1099.91 2505.70,-1096.79 2507.42,-1092.92 2508.00,-1088.29"/>
    </edge>
    <edge id=":gneJ9_4" function="internal">
        <lane id=":gneJ9_4_0" index="0" speed="10.10" length="16.06" shape="2498.79,-1102.26 2501.42,-1100.42 2503.30,-1097.48 2504.42,-1093.44 2504.80,-1088.29"/>
    </edge>
    <edge id=":gneJ9_5" function="internal">
        <lane id=":gneJ9_5_0" index="0" speed="9.66" length="14.63" shape="2498.79,-1102.26 2500.02,-1100.94 2500.90,-1098.16 2501.42,-1093.95 2501.60,-1088.29"/>
    </edge>

    <edge id="-gneE0" from="gneJ1" to="gneJ0" priority="-1">
        <lane id="-gneE0_0" index="0" speed="13.89" length="1396.00" shape="-98.40,-1200.00 -98.40,196.00"/>
    </edge>
    <edge id="-gneE10" from="gneJ13" to="gneJ12" priority="-1" shape="400.00,-1200.00 400.10,-1199.90">
        <lane id="-gneE10_0" index="0" speed="13.89" length="0.14" shape="401.13,-1201.13 401.23,-1201.03"/>
    </edge>
    <edge id="-gneE11" from="gneJ14" to="gneJ13" priority="-1">
        <lane id="-gneE11_0" index="0" speed="13.89" length="1410.21" shape="1800.68,-1395.25 404.64,-1195.81"/>
        <lane id="-gneE11_1" index="1" speed="13.89" length="1410.21" shape="1800.23,-1398.42 404.19,-1198.98"/>
    </edge>
    <edge id="-gneE13" from="gneJ16" to="gneJ12" priority="-1">
        <lane id="-gneE13_0" index="0" speed="13.89" length="498.50" shape="-100.00,-1204.80 398.50,-1204.80"/>
        <lane id="-gneE13_1" index="1" speed="13.89" length="498.50" shape="-100.00,-1201.60 398.50,-1201.60"/>
    </edge>
    <edge id="-gneE14" from="gneJ17" to="gneJ16" priority="-1">
        <lane id="-gneE14_0" index="0" speed="13.89" length="292.80" shape="192.80,-1195.20 -100.00,-1195.20"/>
        <lane id="-gneE14_1" index="1" speed="13.89" length="292.80" shape="192.80,-1198.40 -100.00,-1198.40"/>
    </edge>
    <edge id="-gneE15" from="gneJ18" to="gneJ17" priority="-1">
        <lane id="-gneE15_0" index="0" speed="13.89" length="379.20" shape="198.40,-810.40 198.40,-1189.60"/>
    </edge>
    <edge id="-gneE16" from="gneJ19" to="gneJ18" priority="-1">
        <lane id="-gneE16_0" index="0" speed="13.89" length="292.80" shape="-100.00,-804.80 192.80,-804.80"/>
        <lane id="-gneE16_1" index="1" speed="13.89" length="292.80" shape="-100.00,-801.60 192.80,-801.60"/>
    </edge>
    <edge id="-gneE18" from="gneJ22" to="gneJ21" priority="-1">
        <lane id="-gneE18_0" index="0" speed="13.89" length="392.80" shape="398.40,-807.20 398.40,-1200.00"/>
    </edge>
    <edge id="-gneE19" from="gneJ18" to="gneJ22" priority="-1">
        <lane id="-gneE19_0" index="0" speed="13.89" length="185.60" shape="207.20,-801.60 392.80,-801.60"/>
    </edge>
    <edge id="-gneE2" from="gneJ3" to="gneJ0" priority="-1" shape="-100.00,200.00 -99.90,200.10">
        <lane id="-gneE2_0" index="0" speed="13.89" length="0.14" shape="-98.87,198.87 -98.77,198.97"/>
    </edge>
    <edge id="-gneE20" from="gneJ23" to="gneJ18" priority="-1">
        <lane id="-gneE20_0" index="0" speed="13.89" length="285.60" shape="198.40,-507.20 198.40,-792.80"/>
    </edge>
    <edge id="-gneE21" from="gneJ24" to="gneJ23" priority="-1">
        <lane id="-gneE21_0" index="0" speed="13.89" length="292.80" shape="-100.00,-501.60 192.80,-501.60"/>
    </edge>
    <edge id="-gneE23" from="gneJ27" to="gneJ26" priority="-1" shape="200.00,-500.00 200.10,-499.90">
        <lane id="-gneE23_0" index="0" speed="13.89" length="0.14" shape="201.13,-501.13 201.23,-501.03"/>
    </edge>
    <edge id="-gneE24" from="gneJ28" to="gneJ27" priority="-1" shape="200.00,-500.00 200.10,-499.90">
        <lane id="-gneE24_0" index="0" speed="13.89" length="0.14" shape="201.13,-501.13 201.23,-501.03"/>
    </edge>
    <edge id="-gneE25" from="gneJ23" to="gneJ28" priority="-1" shape="200.00,-500.00 200.10,-499.90">
        <lane id="-gneE25_0" index="0" speed="13.89" length="0.20" shape="201.97,-500.29 202.11,-500.15"/>
    </edge>
    <edge id="-gneE26" from="gneJ29" to="gneJ23" priority="-1">
        <lane id="-gneE26_0" index="0" speed="13.89" length="275.42" shape="398.87,-298.87 204.12,-493.62"/>
    </edge>
    <edge id="-gneE27" from="gneJ30" to="gneJ29" priority="-1" shape="400.00,-300.00 400.10,-299.90">
        <lane id="-gneE27_0" index="0" speed="13.89" length="4.53" shape="397.93,-304.33 401.13,-301.13"/>
    </edge>
    <edge id="-gneE28" from="gneJ22" to="gneJ30" priority="-1">
        <lane id="-gneE28_0" index="0" speed="13.89" length="492.80" shape="401.60,-792.80 401.60,-300.00"/>
    </edge>
    <edge id="-gneE29" from="gneJ31" to="gneJ22" priority="-1">
        <lane id="-gneE29_0" index="0" speed="13.89" length="482.40" shape="398.40,-310.40 398.40,-792.80"/>
    </edge>
    <edge id="-gneE30" from="gneJ32" to="gneJ31" priority="-1">
        <lane id="-gneE30_0" index="0" speed="13.89" length="492.80" shape="-100.00,-304.80 392.80,-304.80"/>
        <lane id="-gneE30_1" index="1" speed="13.89" length="492.80" shape="-100.00,-301.60 392.80,-301.60"/>
    </edge>
    <edge id="-gneE31" from="gneJ33" to="gneJ32" priority="-1">
        <lane id="-gneE31_0" index="0" speed="13.89" length="196.80" shape="96.80,-298.40 -100.00,-298.40"/>
    </edge>
    <edge id="-gneE32" from="gneJ34" to="gneJ33" priority="-1">
        <lane id="-gneE32_0" index="0" speed="13.89" length="493.60" shape="98.40,196.80 98.40,-296.80"/>
    </edge>